Circuit: * C:\Users\Tomm\Documents\LTspiceXVII\VLSI\2_1MUX_TG_TEST.asc

Instance "m:x1:4": Length shorter than recommended for a level 1 MOSFET.
Instance "m:x1:4": Width narrower than recommended for a level 1 MOSFET.
Instance "m:x1:2": Length shorter than recommended for a level 1 MOSFET.
Instance "m:x1:2": Width narrower than recommended for a level 1 MOSFET.
Instance "m:x1:3": Length shorter than recommended for a level 1 MOSFET.
Instance "m:x1:3": Width narrower than recommended for a level 1 MOSFET.
Instance "m:x1:1": Length shorter than recommended for a level 1 MOSFET.
Instance "m:x1:1": Width narrower than recommended for a level 1 MOSFET.
Direct Newton iteration for .op point succeeded.

Date: Mon Dec 06 14:48:42 2021
Total elapsed time: 0.116 seconds.

tnom = 27
temp = 27
method = modified trap
totiter = 2665
traniter = 2658
tranpoints = 1223
accept = 1214
rejected = 9
matrix size = 10
fillins = 0
solver = Normal
Matrix Compiler1: 436 bytes object code size  0.2/0.1/[0.1]
Matrix Compiler2: 818 bytes object code size  0.1/0.1/[0.1]

