Circuit: * C:\Users\Tomm\Documents\LTspiceXVII\VLSI\2_1MUX_TG.asc

Direct Newton iteration for .op point succeeded.

Date: Mon Nov 29 09:20:56 2021
Total elapsed time: 0.128 seconds.

tnom = 27
temp = 27
method = modified trap
totiter = 2317
traniter = 2310
tranpoints = 1117
accept = 1114
rejected = 3
matrix size = 10
fillins = 0
solver = Normal
Matrix Compiler1: 454 bytes object code size  0.1/0.1/[0.1]
Matrix Compiler2: 812 bytes object code size  0.1/0.1/[0.1]

