Circuit: * C:\Users\Tomm\Documents\LTspiceXVII\VLSI\2_1MUX_TEST.asc

Direct Newton iteration for .op point succeeded.
Changing Tseed to 1e-016
Changing Tseed to 1e-018
Changing Tseed to 1e-015
Changing Tseed to 1e-019
Heightened Def Con from 3.33594e-019 to 3.64101e-019
Heightened Def Con from 3.64101e-019 to 3.94608e-019
Heightened Def Con from 3.94608e-019 to 4.25113e-019

Date: Mon Nov 29 14:59:33 2021
Total elapsed time: 0.170 seconds.

tnom = 27
temp = 27
method = modified trap
totiter = 5512
traniter = 5497
tranpoints = 1436
accept = 1358
rejected = 77
matrix size = 18
fillins = 0
solver = Normal
Thread vector: 7.5/5.7[2] 7.1/4.5[2] 1.3/1.7[1] 0.2/4.9[1]  2592/500
Matrix Compiler1: 1.09 KB object code size  0.8/0.4/[0.2]
Matrix Compiler2: 1.77 KB object code size  0.5/0.6/[0.3]

