Circuit: * C:\Users\Tomm\Documents\LTspiceXVII\VLSI\2bitmultiplier.asc

WARNING: Node NC_01 is floating.
WARNING: Node NC_02 is floating.
WARNING: Node NC_03 is floating.
WARNING: Node NC_04 is floating.
WARNING: Node NC_05 is floating.
WARNING: Node NC_06 is floating.
WARNING: Node NC_07 is floating.
WARNING: Node NC_08 is floating.
WARNING: Node NC_09 is floating.
WARNING: Node NC_10 is floating.

WARNING: Less than two connections to node NC_01.  This node is used by C1.
WARNING: Less than two connections to node NC_02.  This node is used by C1.
WARNING: Less than two connections to node NC_03.  This node is used by C2.
WARNING: Less than two connections to node NC_04.  This node is used by C2.
WARNING: Less than two connections to node NC_05.  This node is used by C3.
WARNING: Less than two connections to node NC_06.  This node is used by C3.
WARNING: Less than two connections to node NC_07.  This node is used by C4.
WARNING: Less than two connections to node NC_08.  This node is used by C4.
WARNING: Less than two connections to node NC_09.  This node is used by C5.
WARNING: Less than two connections to node NC_10.  This node is used by C5.
Direct Newton iteration for .op point succeeded.

Date: Mon Oct 18 15:41:15 2021
Total elapsed time: 0.514 seconds.

tnom = 27
temp = 27
method = modified trap
totiter = 2122
traniter = 2082
tranpoints = 1042
accept = 1042
rejected = 0
matrix size = 54
fillins = 12
solver = Normal
Thread vector: 50.9/24.0[4] 26.9/14.4[4] 3.9/7.0[1] 0.4/19.2[1]  2592/500
Matrix Compiler1: 5.29 KB object code size  5.8/1.5/[1.1]
Matrix Compiler2: 5.82 KB object code size  1.2/3.8/[0.7]

