Circuit: * C:\Users\Tomm\Documents\LTspiceXVII\VLSI\4_1MUX_Using_2_1MUX.asc

Instance "m:x3:4": Length shorter than recommended for a level 1 MOSFET.
Instance "m:x3:4": Width narrower than recommended for a level 1 MOSFET.
Instance "m:x3:2": Length shorter than recommended for a level 1 MOSFET.
Instance "m:x3:2": Width narrower than recommended for a level 1 MOSFET.
Instance "m:x2:4": Length shorter than recommended for a level 1 MOSFET.
Instance "m:x2:4": Width narrower than recommended for a level 1 MOSFET.
Instance "m:x2:2": Length shorter than recommended for a level 1 MOSFET.
Instance "m:x2:2": Width narrower than recommended for a level 1 MOSFET.
Instance "m:x1:4": Length shorter than recommended for a level 1 MOSFET.
Instance "m:x1:4": Width narrower than recommended for a level 1 MOSFET.
Instance "m:x1:2": Length shorter than recommended for a level 1 MOSFET.
Instance "m:x1:2": Width narrower than recommended for a level 1 MOSFET.
Instance "m:x3:3": Length shorter than recommended for a level 1 MOSFET.
Instance "m:x3:3": Width narrower than recommended for a level 1 MOSFET.
Instance "m:x3:1": Length shorter than recommended for a level 1 MOSFET.
Instance "m:x3:1": Width narrower than recommended for a level 1 MOSFET.
Instance "m:x2:3": Length shorter than recommended for a level 1 MOSFET.
Instance "m:x2:3": Width narrower than recommended for a level 1 MOSFET.
Instance "m:x2:1": Length shorter than recommended for a level 1 MOSFET.
Instance "m:x2:1": Width narrower than recommended for a level 1 MOSFET.
Instance "m:x1:3": Length shorter than recommended for a level 1 MOSFET.
Instance "m:x1:3": Width narrower than recommended for a level 1 MOSFET.
Instance "m:x1:1": Length shorter than recommended for a level 1 MOSFET.
Instance "m:x1:1": Width narrower than recommended for a level 1 MOSFET.
Direct Newton iteration for .op point succeeded.

Date: Mon Dec 06 14:39:28 2021
Total elapsed time: 0.246 seconds.

tnom = 27
temp = 27
method = modified trap
totiter = 3895
traniter = 3888
tranpoints = 1464
accept = 1445
rejected = 19
matrix size = 24
fillins = 0
solver = Normal
Matrix Compiler1: 1.27 KB object code size  0.6/0.6/[0.2]
Matrix Compiler2: 2.14 KB object code size  0.4/1.0/[0.2]

