Circuit: * C:\Users\Tomm\Documents\LTspiceXVII\VLSI\4bit_ALU_TEST .asc

Direct Newton iteration for .op point succeeded.
Heightened Def Con from 5e-010 to 5e-010
Heightened Def Con from 5e-010 to 5e-010
Heightened Def Con from 5e-010 +++++++++++++++++++++to 5.00001e-010
Heightened Def Con from 5.00001e-010 +++++++++++++++++++++to 5.00001e-010
Heightened Def Con from 5.00001e-010 +++++++++++++++++++++to 5.03907e-010
Heightened Def Con from 5.03907e-010 ++++++++++++++++++++to 5.03984e-010
Heightened Def Con from 5.03984e-010 ++++++++++++++++++++to 5.04594e-010
Heightened Def Con from 5.04594e-010 +++++++++++++++++++to 5.04603e-010
Heightened Def Con from 5.04603e-010 +++++++++++++++++++to 5.04613e-010
Heightened Def Con from 5.04613e-010 +++++++++++++++++++to 5.04623e-010
Heightened Def Con from 5.04623e-010 +++++++++++++++++++to 5.04632e-010
Heightened Def Con from 5.04632e-010 +++++++++++++++++++to 5.04642e-010
Heightened Def Con from 5.04642e-010 +++++++++++++++++++to 5.04651e-010
Heightened Def Con from 5.04651e-010 +++++++++++++++++++to 5.04661e-010
Heightened Def Con from 5.04661e-010 +++++++++++++++++++to 5.04662e-010
Heightened Def Con from 5.04662e-010 +++++++++++++++++++to 5.04663e-010
Heightened Def Con from 5.04663e-010 +++++++++++++++++++to 5.04664e-010
Heightened Def Con from 5.04664e-010 +++++++++++++++++++to 5.04665e-010
Heightened Def Con from 5.04665e-010 +++++++++++++++++++to 5.04667e-010
Heightened Def Con from 5.04667e-010 +++++++++++++++++++to 5.04668e-010
Heightened Def Con from 5.04668e-010 +++++++++++++++++++to 5.04669e-010
Heightened Def Con from 5.04669e-010 +++++++++++++++++++to 5.0467e-010
Heightened Def Con from 5.0467e-010 +++++++++++++++++++to 5.0467e-010
Heightened Def Con from 5.0467e-010 +++++++++++++++++++to 5.04672e-010
Heightened Def Con from 5.04672e-010 +++++++++++++++++++to 5.04673e-010
Heightened Def Con from 5.04673e-010 +++++++++++++++++++to 5.04682e-010
Heightened Def Con from 5.04682e-010 +++++++++++++++++++to 5.04692e-010
Heightened Def Con from 5.04692e-010 +++++++++++++++++++to 5.04693e-010
Heightened Def Con from 5.04693e-010 +++++++++++++++++++to 5.04694e-010
Heightened Def Con from 5.04694e-010 +++++++++++++++++++to 5.04695e-010
Heightened Def Con from 5.04695e-010 +++++++++++++++++++to 5.04697e-010
Heightened Def Con from 5.04697e-010 +++++++++++++++++++to 5.04698e-010
Heightened Def Con from 5.04698e-010 +++++++++++++++++++to 5.04699e-010
Heightened Def Con from 5.04699e-010 +++++++++++++++++++to 5.047e-010
Heightened Def Con from 5.047e-010 +++++++++++++++++++to 5.04701e-010
Heightened Def Con from 5.04701e-010 +++++++++++++++++++to 5.04703e-010
Heightened Def Con from 5.04703e-010 +++++++++++++++++++to 5.04704e-010
Heightened Def Con from 5.04704e-010 +++++++++++++++++++to 5.04705e-010
Heightened Def Con from 5.04705e-010 +++++++++++++++++++to 5.04706e-010
Heightened Def Con from 5.04706e-010 +++++++++++++++++++to 5.04707e-010
Heightened Def Con from 5.04707e-010 +++++++++++++++++++to 5.04708e-010
Heightened Def Con from 5.04708e-010 +++++++++++++++++++to 5.0471e-010
Heightened Def Con from 5.0471e-010 +++++++++++++++++++to 5.04711e-010
Heightened Def Con from 5.04711e-010 +++++++++++++++++++to 5.04712e-010
Heightened Def Con from 5.04712e-010 +++++++++++++++++++to 5.04713e-010
Heightened Def Con from 5.04713e-010 +++++++++++++++++++to 5.04714e-010
Heightened Def Con from 5.04714e-010 +++++++++++++++++++to 5.04716e-010
Heightened Def Con from 5.04716e-010 +++++++++++++++++++to 5.04725e-010
Heightened Def Con from 5.04725e-010 +++++++++++++++++++to 5.04801e-010
Heightened Def Con from 5.04801e-010 ++++++++++++++to 5.04811e-010
Heightened Def Con from 1e-009 to 1e-009
Heightened Def Con from 1e-009 to 1e-009
Heightened Def Con from 1e-009 +++++++++++++++++++++to 1e-009
Heightened Def Con from 1e-009 +++++++++++++++++++++to 1e-009
Heightened Def Con from 1e-009 +++++++++++++++++++++to 1e-009
Heightened Def Con from 1e-009 +++++++++++++++++++++to 1e-009
Heightened Def Con from 1e-009 +++++++++++++++++++++to 1.00391e-009
Heightened Def Con from 1.00391e-009 ++++++++++++++++++++to 1.00398e-009
Heightened Def Con from 1.00398e-009 ++++++++++++++++++++to 1.00459e-009
Heightened Def Con from 1.00459e-009 +++++++++++++++++++to 1.0046e-009
Heightened Def Con from 1.0046e-009 +++++++++++++++++++to 1.00461e-009
Heightened Def Con from 1.00461e-009 +++++++++++++++++++to 1.00462e-009
Heightened Def Con from 1.00462e-009 +++++++++++++++++++to 1.00462e-009
Heightened Def Con from 1.00462e-009 +++++++++++++++++++to 1.00463e-009
Heightened Def Con from 1.00463e-009 +++++++++++++++++++to 1.00463e-009
Heightened Def Con from 1.00463e-009 +++++++++++++++++++to 1.00463e-009
Heightened Def Con from 1.00463e-009 +++++++++++++++++++to 1.00463e-009
Heightened Def Con from 1.00463e-009 +++++++++++++++++++to 1.00463e-009
Heightened Def Con from 1.00463e-009 +++++++++++++++++++to 1.00463e-009
Heightened Def Con from 1.00463e-009 +++++++++++++++++++to 1.00463e-009
Heightened Def Con from 1.00463e-009 +++++++++++++++++++to 1.00464e-009
Heightened Def Con from 1.00464e-009 +++++++++++++++++++to 1.00465e-009
Heightened Def Con from 1.00465e-009 +++++++++++++++++++to 1.00466e-009
Heightened Def Con from 1.00466e-009 +++++++++++++++++++to 1.00466e-009
Heightened Def Con from 1.00466e-009 +++++++++++++++++++to 1.00466e-009
Heightened Def Con from 1.00466e-009 +++++++++++++++++++to 1.00467e-009
Heightened Def Con from 1.00467e-009 +++++++++++++++++++to 1.00467e-009
Heightened Def Con from 1.00467e-009 +++++++++++++++++++to 1.00467e-009
Heightened Def Con from 1.00467e-009 +++++++++++++++++++to 1.00467e-009
Heightened Def Con from 1.00467e-009 +++++++++++++++++++to 1.00467e-009
Heightened Def Con from 1.00467e-009 +++++++++++++++++++to 1.00467e-009
Heightened Def Con from 1.00467e-009 +++++++++++++++++++to 1.00467e-009
Heightened Def Con from 1.00467e-009 +++++++++++++++++++to 1.00467e-009
Heightened Def Con from 1.00467e-009 +++++++++++++++++++to 1.00467e-009
Heightened Def Con from 1.00467e-009 +++++++++++++++++++to 1.00467e-009
Heightened Def Con from 1.00467e-009 +++++++++++++++++++to 1.00468e-009
Heightened Def Con from 1.00468e-009 +++++++++++++++++++to 1.00468e-009
Heightened Def Con from 1.00468e-009 +++++++++++++++++++to 1.00469e-009
Heightened Def Con from 1.00469e-009 +++++++++++++++++++to 1.0047e-009
Heightened Def Con from 1.0047e-009 +++++++++++++++++++to 1.0047e-009
Heightened Def Con from 1.0047e-009 +++++++++++++++++++to 1.0047e-009
Heightened Def Con from 1.0047e-009 +++++++++++++++++++to 1.00471e-009
Heightened Def Con from 1.00471e-009 +++++++++++++++++++to 1.00471e-009
Heightened Def Con from 1.00471e-009 +++++++++++++++++++to 1.00471e-009
Heightened Def Con from 1.00471e-009 +++++++++++++++++++to 1.00472e-009
Heightened Def Con from 1.00472e-009 +++++++++++++++++++to 1.0048e-009
Heightened Def Con from 1.0048e-009 +++++++++++++++++++to 1.00481e-009
Heightened Def Con from 1.00481e-009 +++++++++++++++++++to 1.00481e-009
Heightened Def Con from 1.00481e-009 +++++++++++++++++++to 1.00482e-009
Heightened Def Con from 1.00482e-009 +++++++++++++++++++to 1.00482e-009
Heightened Def Con from 1.00482e-009 +++++++++++++++++++to 1.00482e-009
Heightened Def Con from 1.00482e-009 +++++++++++++++++++to 1.00483e-009
Heightened Def Con from 1.00483e-009 +++++++++++++++++++to 1.00484e-009
Heightened Def Con from 1.00484e-009 ++++++++++++++++++to 1.00485e-009
Heightened Def Con from 1.00485e-009 ++++++++++++to 1.00486e-009
Heightened Def Con from 1.5e-009 +++++to 1.5e-009
Heightened Def Con from 1.5e-009 to 1.5e-009
Heightened Def Con from 2e-009 ++to 2e-009
Heightened Def Con from 2e-009 to 2e-009
Heightened Def Con from 2e-009 +++++++++++++++++++++to 2e-009
Heightened Def Con from 2e-009 ++++++++++++++++++++to 2e-009
Heightened Def Con from 2e-009 +++++++++++++++++++to 2.00006e-009
Heightened Def Con from 2.00006e-009 +++++++to 2.00014e-009
Heightened Def Con from 2.00014e-009 ++++++to 2.00022e-009
Heightened Def Con from 2.00123e-009 +to 2.00123e-009
Heightened Def Con from 2.00123e-009 to 2.00123e-009
Heightened Def Con from 2.00135e-009 to 2.00135e-009
Heightened Def Con from 2.00135e-009 +to 2.00135e-009
Heightened Def Con from 2.00135e-009 +to 2.00135e-009
Heightened Def Con from 2.00135e-009 +to 2.00135e-009
Heightened Def Con from 2.00135e-009 +to 2.00135e-009
Heightened Def Con from 2.00135e-009 +to 2.00135e-009
Heightened Def Con from 2.00135e-009 +to 2.00135e-009
Heightened Def Con from 2.00135e-009 +to 2.00135e-009
Heightened Def Con from 2.00135e-009 +to 2.00135e-009
Heightened Def Con from 2.00135e-009 +to 2.00135e-009
Heightened Def Con from 2.00135e-009 +to 2.00135e-009
Heightened Def Con from 2.00135e-009 +to 2.00135e-009
Heightened Def Con from 2.00135e-009 +to 2.00135e-009
Heightened Def Con from 2.00135e-009 +to 2.00135e-009
Heightened Def Con from 2.00135e-009 +to 2.00135e-009
Heightened Def Con from 2.00135e-009 +to 2.00135e-009
Heightened Def Con from 2.00135e-009 +to 2.00135e-009
Heightened Def Con from 2.00135e-009 +to 2.00136e-009
Heightened Def Con from 2.00136e-009 to 2.00137e-009
Heightened Def Con from 2.00229e-009 to 2.00229e-009
Heightened Def Con from 2.5e-009 ++to 2.5e-009
Heightened Def Con from 2.5e-009 to 2.5e-009
Heightened Def Con from 3e-009 to 3e-009
Heightened Def Con from 3e-009 to 3e-009
Heightened Def Con from 3e-009 +++++++++++++++++++++to 3e-009
Heightened Def Con from 3e-009 +++++++++++++++++++++to 3e-009
Heightened Def Con from 3e-009 ++++++++++++++++++++to 3e-009
Heightened Def Con from 3e-009 +++++++++++++++++++to 3e-009
Heightened Def Con from 3e-009 +++++++++++++++++to 3e-009
Heightened Def Con from 3e-009 +++to 3e-009
Heightened Def Con from 3e-009 ++++++++++++++++++++to 3e-009
Heightened Def Con from 3e-009 ++++++++++++++++++++to 3e-009
Heightened Def Con from 3e-009 ++++++++++++++++++++to 3e-009
Heightened Def Con from 3e-009 ++++++++++++++++++++to 3e-009
Heightened Def Con from 3e-009 +++++++++++++++++++to 3.00006e-009
Heightened Def Con from 3.00006e-009 +++++++to 3.00014e-009
Heightened Def Con from 3.00035e-009 to 3.00035e-009
Heightened Def Con from 3.00035e-009 +to 3.00035e-009
Heightened Def Con from 3.00035e-009 +to 3.00035e-009
Heightened Def Con from 3.00035e-009 +to 3.00035e-009
Heightened Def Con from 3.5e-009 +++++++++++++++++++++to 3.5e-009
Heightened Def Con from 3.5e-009 +++++++++++++++++++++to 3.5e-009
Heightened Def Con from 3.5e-009 ++++++++++++++++++++to 3.50049e-009
Heightened Def Con from 3.50049e-009 +++++++++++++++++++to 3.50057e-009
Heightened Def Con from 3.50057e-009 +++++++++++++++++to 3.50064e-009
Heightened Def Con from 3.50064e-009 +++++++++++++to 3.50065e-009
Heightened Def Con from 3.50065e-009 ++to 3.50066e-009
Heightened Def Con from 3.50097e-009 to 3.50097e-009
Heightened Def Con from 3.50097e-009 to 3.50097e-009
Heightened Def Con from 4e-009 ++++++++++++++++++++to 4e-009
Heightened Def Con from 4e-009 +++++++++++++++++++to 4e-009
Heightened Def Con from 4e-009 ++++to 4e-009
Heightened Def Con from 4e-009 to 4e-009
Heightened Def Con from 4e-009 +++++++++to 4e-009
Heightened Def Con from 4e-009 ++++++++++to 4e-009
Heightened Def Con from 4e-009 ++++++++++to 4e-009
Heightened Def Con from 4e-009 +++++++++++++++++++++to 4e-009
Heightened Def Con from 4e-009 +++++++++++++++++++++to 4.00391e-009
Heightened Def Con from 4.00391e-009 +++++++++++++++++++++to 4.04297e-009
Heightened Def Con from 4.04297e-009 +++++++++++++++++++++to 4.08203e-009
Heightened Def Con from 4.08203e-009 +++++++++++++++++++++to 4.1211e-009
Heightened Def Con from 4.1211e-009 +++++++++++++++++++++to 4.16016e-009
Heightened Def Con from 4.16016e-009 +++++++++++++++++++++to 4.19922e-009
Heightened Def Con from 4.19922e-009 +++++++++++++++++++++to 4.23828e-009
Heightened Def Con from 4.23828e-009 +++++++++++++++++++++to 4.27735e-009
Heightened Def Con from 4.27735e-009 +++++++++++++++++++++to 4.31641e-009
Heightened Def Con from 4.31641e-009 +++++++++++++++++++++to 4.35547e-009
Heightened Def Con from 4.35547e-009 +++++++++++++++++++++to 4.39453e-009
Heightened Def Con from 4.39453e-009 +++++++++++++++++++++to 4.4336e-009
Heightened Def Con from 4.4336e-009 +++++++++++++++++++++to 4.5e-009
Heightened Def Con from 4.5e-009 +++++++++++++++++++++to 4.5e-009
Heightened Def Con from 4.5e-009 ++++++++++++++++++++to 4.5e-009
Heightened Def Con from 4.5e-009 ++++++++++++++++++++to 4.5e-009
Heightened Def Con from 4.5e-009 ++++++++++++++++++++to 4.5e-009
Heightened Def Con from 4.5e-009 ++++++++++++++++++++to 4.5e-009
Heightened Def Con from 4.5e-009 +++++++++++++++++++to 4.50001e-009
Heightened Def Con from 4.50001e-009 +++++++++++++++++++to 4.50001e-009
Heightened Def Con from 4.50001e-009 +++++++++++++++++++to 4.50002e-009
Heightened Def Con from 4.50002e-009 +++++++++++++++++++to 4.5001e-009
Heightened Def Con from 4.5001e-009 +++++++++++++++++to 4.50017e-009
Heightened Def Con from 4.50017e-009 ++++++++++to 4.50018e-009
Heightened Def Con from 5e-009 +++++++++++++++++++++to 5e-009
Heightened Def Con from 5e-009 ++++++++++++++++++++to 5e-009
Heightened Def Con from 5e-009 +++++++++++++++++++to 5e-009
Heightened Def Con from 5e-009 ++++++++++++++++++to 5e-009
Heightened Def Con from 5e-009 +++++++++++++to 5e-009
Heightened Def Con from 5e-009 ++to 5e-009
Heightened Def Con from 5e-009 ++++++to 5e-009
Heightened Def Con from 5e-009 ++++++++to 5e-009
Heightened Def Con from 5e-009 +++++++++to 5e-009
Heightened Def Con from 5e-009 ++++++++to 5e-009
Heightened Def Con from 5e-009 +to 5e-009
Heightened Def Con from 5e-009 +++++to 5e-009
Heightened Def Con from 5e-009 +to 5e-009
Heightened Def Con from 5e-009 to 5e-009
Heightened Def Con from 5.5e-009 +++++++++++++++++++++to 5.5e-009
Heightened Def Con from 5.5e-009 ++++++++++++++++++++to 5.5e-009
Heightened Def Con from 5.5e-009 +++++++++++++++++++to 5.5e-009
Heightened Def Con from 5.5e-009 ++++++++++++++to 5.5e-009
Heightened Def Con from 6e-009 +++++++++++++++++++++to 6e-009
Heightened Def Con from 6e-009 ++++++++++++++++++++to 6e-009
Heightened Def Con from 6e-009 +++++++++++++++++++to 6e-009
Heightened Def Con from 6e-009 ++++++++++++++to 6e-009
Heightened Def Con from 6e-009 to 6e-009
Heightened Def Con from 6e-009 to 6e-009
Heightened Def Con from 6e-009 +++++++++++++++++++++to 6e-009
Heightened Def Con from 6e-009 ++++++++++++++++++++to 6e-009
Heightened Def Con from 6e-009 ++++++++++++++++++++to 6e-009
Heightened Def Con from 6e-009 ++++++++++++++++++++to 6e-009
Heightened Def Con from 6e-009 ++++++++++++++++++++to 6e-009
Heightened Def Con from 6e-009 ++++++++++++++++++++to 6e-009
Heightened Def Con from 6e-009 +++++++++++++++++++to 6.00006e-009
Heightened Def Con from 6.00006e-009 +++++++++++++++to 6.00007e-009
Heightened Def Con from 6.00007e-009 +++++++++++++to 6.00007e-009
Heightened Def Con from 6.00007e-009 +++++++to 6.00015e-009
Heightened Def Con from 6.00029e-009 +++++++++++++++++++++to 6.00036e-009
Heightened Def Con from 6.00036e-009 ++++++++++++++++++++to 6.00044e-009
Heightened Def Con from 6.00044e-009 ++++++++++++++++++++to 6.00052e-009
Heightened Def Con from 6.00052e-009 ++++++++++++++++++++to 6.00059e-009
Heightened Def Con from 6.00059e-009 ++++++++++++++++++++to 6.0012e-009
Heightened Def Con from 6.0012e-009 ++++++++++++++++++++to 6.00181e-009
Heightened Def Con from 6.00181e-009 ++++++++++++++++++++to 6.00242e-009
Heightened Def Con from 6.00242e-009 ++++++++++++++++++++to 6.00304e-009
Heightened Def Con from 6.00304e-009 +++++++++++++++++++to 6.00304e-009
Heightened Def Con from 6.00304e-009 +++++++++++++++++to 6.00312e-009
Heightened Def Con from 6.00312e-009 +++++++++++++++to 6.0032e-009
Heightened Def Con from 6.0032e-009 ++++++to 6.00321e-009
Heightened Def Con from 6.00328e-009 to 6.00328e-009
Heightened Def Con from 6.5e-009 ++to 6.5e-009
Heightened Def Con from 6.5e-009 to 6.5e-009
Heightened Def Con from 7e-009 +++++++++++++++++++++to 7e-009
Heightened Def Con from 7e-009 ++++++++++++++++++++to 7e-009
Heightened Def Con from 7e-009 +++++++++++++++++++to 7e-009
Heightened Def Con from 7e-009 +++++++++++++to 7e-009
Heightened Def Con from 7e-009 to 7e-009
Heightened Def Con from 7.5e-009 +++++to 7.5e-009
Heightened Def Con from 7.5e-009 to 7.5e-009
Heightened Def Con from 8e-009 ++++++++++++++++++++to 8e-009
Heightened Def Con from 8e-009 ++++++++++++++++++++to 8e-009
Heightened Def Con from 8e-009 ++++++++++++++++++++to 8e-009
Heightened Def Con from 8e-009 ++++++++++++++++++++to 8e-009
Heightened Def Con from 8e-009 ++++++++++++++++++++to 8e-009
Heightened Def Con from 8e-009 ++++++++++++++++++++to 8e-009
Heightened Def Con from 8e-009 +++++++++++++++++++to 8.00006e-009
Heightened Def Con from 8.00006e-009 +++++++++++++++to 8.00007e-009
Heightened Def Con from 8.00007e-009 +++++++++++++to 8.00007e-009
Heightened Def Con from 8.5e-009 ++to 8.5e-009
Heightened Def Con from 8.5e-009 to 8.5e-009
Heightened Def Con from 9e-009 ++to 9e-009
Heightened Def Con from 9e-009 to 9e-009
Heightened Def Con from 9e-009 ++++++++++++++++++++to 9e-009
Heightened Def Con from 9e-009 ++++++++++++++++++++to 9e-009
Heightened Def Con from 9e-009 ++++++++++++++++++++to 9e-009
Heightened Def Con from 9e-009 ++++++++++++++++++++to 9e-009
Heightened Def Con from 9e-009 +++++++++++++++++++to 9.00049e-009
Heightened Def Con from 9.00049e-009 +++++++++++++to 9.00049e-009
Heightened Def Con from 9.00049e-009 +++++++++++to 9.00049e-009
Heightened Def Con from 9.00049e-009 to 9.00049e-009
Heightened Def Con from 9.00049e-009 +to 9.00049e-009
Heightened Def Con from 9.00049e-009 +to 9.00049e-009
Heightened Def Con from 9.00049e-009 ++to 9.00049e-009
Heightened Def Con from 9.00049e-009 ++to 9.00049e-009
Heightened Def Con from 9.00049e-009 ++to 9.00049e-009
Heightened Def Con from 9.00049e-009 to 9.00049e-009
Heightened Def Con from 9.00221e-009 to 9.00221e-009
Heightened Def Con from 9.5e-009 +++++++++++++++++++++to 9.5e-009
Heightened Def Con from 9.5e-009 ++++++++++++++++++++to 9.5e-009
Heightened Def Con from 9.5e-009 +++++++++++++++++++to 9.5e-009
Heightened Def Con from 9.5e-009 ++++to 9.5e-009
Heightened Def Con from 9.5e-009 to 9.5e-009
Heightened Def Con from 1e-008 +++++++++++++++++++++to 1e-008
Heightened Def Con from 1e-008 ++++++++++++++++++++to 1e-008
Heightened Def Con from 1e-008 +++++++++++++++++++to 1e-008
Heightened Def Con from 1e-008 +++++++++++++to 1e-008
Heightened Def Con from 1e-008 to 1e-008
Heightened Def Con from 1e-008 ++++++++++++++++++++to 1e-008
Heightened Def Con from 1e-008 ++++++++++++++++++++to 1e-008
Heightened Def Con from 1e-008 ++++++++++++++++++++to 1e-008
Heightened Def Con from 1e-008 ++++++++++++++++++++to 1e-008
Heightened Def Con from 1e-008 ++++++++++++++++++++to 1e-008
Heightened Def Con from 1e-008 ++++++++++++++++++++to 1e-008
Heightened Def Con from 1e-008 ++++++++++++++++++++to 1e-008
Heightened Def Con from 1e-008 +++++++++++++++++++to 1.00005e-008
Heightened Def Con from 1.00005e-008 ++++++++++++++to 1.00005e-008
Heightened Def Con from 1.00005e-008 ++++++++++++to 1.00005e-008
Heightened Def Con from 1.00005e-008 +++++++++++to 1.00005e-008
Heightened Def Con from 1.05e-008 to 1.05e-008
Heightened Def Con from 1.05e-008 to 1.05e-008
Heightened Def Con from 1.05e-008 +++++++++++++++++++++to 1.05e-008
Heightened Def Con from 1.05e-008 ++++++++++++++++++++to 1.05e-008
Heightened Def Con from 1.05e-008 +++++++++++++++++to 1.05e-008
Heightened Def Con from 1.05e-008 ++++++++++to 1.05e-008
Heightened Def Con from 1.1e-008 +++++++to 1.1e-008
Heightened Def Con from 1.1e-008 +to 1.1e-008
Heightened Def Con from 1.1e-008 to 1.1e-008
Heightened Def Con from 1.15e-008 +++++++++++++++++++++to 1.15e-008
Heightened Def Con from 1.15e-008 ++++++++++++++++++++to 1.15e-008
Heightened Def Con from 1.15e-008 +++++++++++++++++++to 1.15e-008
Heightened Def Con from 1.15e-008 ++++++++++++++to 1.15e-008
Heightened Def Con from 1.2e-008 ++++++++++++++++++++to 1.2e-008
Heightened Def Con from 1.2e-008 ++++++++++++++++++++to 1.2e-008
Heightened Def Con from 1.2e-008 ++++++++++++++++++++to 1.2e-008
Heightened Def Con from 1.2e-008 ++++++++++++++++++++to 1.2e-008
Heightened Def Con from 1.2e-008 ++++++++++++++++++++to 1.2e-008
Heightened Def Con from 1.2e-008 ++++++++++++++++++++to 1.2e-008
Heightened Def Con from 1.2e-008 +++++++++++++++++++to 1.20001e-008
Heightened Def Con from 1.20001e-008 +++++++++++++++to 1.20001e-008
Heightened Def Con from 1.20001e-008 +++++++++++++to 1.20001e-008
Heightened Def Con from 1.20003e-008 +++++++++++++++++++++to 1.20009e-008
Heightened Def Con from 1.20009e-008 ++++++++++++++++++++to 1.2001e-008
Heightened Def Con from 1.2001e-008 ++++++++++++++++++++to 1.20016e-008
Heightened Def Con from 1.20016e-008 ++++++++++++++++++++to 1.20065e-008
Heightened Def Con from 1.20065e-008 ++++++++++++++++++++to 1.20455e-008
Heightened Def Con from 1.20455e-008 ++++++++++++++++++++to 1.20846e-008
Heightened Def Con from 1.20846e-008 ++++++++++++++++++++to 1.21237e-008
Heightened Def Con from 1.21237e-008 ++++++++++++++++++++to 1.21627e-008
Heightened Def Con from 1.21627e-008 ++++++++++++++++++++to 1.22018e-008
Heightened Def Con from 1.22018e-008 ++++++++++++++++++++to 1.22408e-008
Heightened Def Con from 1.22408e-008 ++++++++++++++++++++to 1.22799e-008
Heightened Def Con from 1.22799e-008 ++++++++++++++++++++to 1.2319e-008
Heightened Def Con from 1.2319e-008 ++++++++++++++++++++to 1.2358e-008
Heightened Def Con from 1.2358e-008 ++++++++++++++++++++to 1.23971e-008
Heightened Def Con from 1.23971e-008 ++++++++++++++++++++to 1.24362e-008
Heightened Def Con from 1.24362e-008 ++++++++++++++++++++to 1.25e-008
Heightened Def Con from 1.25e-008 ++++++++++++++++++++to 1.25e-008
Heightened Def Con from 1.25e-008 ++++++++++++++++++++to 1.25e-008
Heightened Def Con from 1.25e-008 ++++++++++++++++++++to 1.25e-008
Heightened Def Con from 1.25e-008 ++++++++++++++++++++to 1.25e-008
Heightened Def Con from 1.25e-008 ++++++++++++++++++++to 1.25039e-008
Heightened Def Con from 1.25039e-008 ++++++++++++++++++++to 1.2543e-008
Heightened Def Con from 1.2543e-008 ++++++++++++++++++++to 1.2582e-008
Heightened Def Con from 1.2582e-008 ++++++++++++++++++++to 1.26211e-008
Heightened Def Con from 1.26211e-008 ++++++++++++++++++++to 1.26602e-008
Heightened Def Con from 1.26602e-008 ++++++++++++++++++++to 1.26992e-008
Heightened Def Con from 1.26992e-008 ++++++++++++++++++++to 1.27383e-008
Heightened Def Con from 1.27383e-008 ++++++++++++++++++++to 1.27773e-008
Heightened Def Con from 1.27773e-008 ++++++++++++++++++++to 1.28164e-008
Heightened Def Con from 1.28164e-008 ++++++++++++++++++++to 1.28555e-008
Heightened Def Con from 1.28555e-008 ++++++++++++++++++++to 1.28945e-008
Heightened Def Con from 1.28945e-008 ++++++++++++++++++++to 1.29336e-008
Heightened Def Con from 1.29336e-008 ++++++++++++++++++++to 1.3e-008
Heightened Def Con from 1.3e-008 ++++++++++++++++++++to 1.3e-008
Heightened Def Con from 1.3e-008 ++++++++++++++++++++to 1.3e-008
Heightened Def Con from 1.3e-008 ++++++++++++++++++++to 1.3e-008
Heightened Def Con from 1.3e-008 ++++++++++++++++++++to 1.3e-008
Heightened Def Con from 1.3e-008 ++++++++++++++++++++to 1.3e-008
Heightened Def Con from 1.3e-008 ++++++++++++++++++++to 1.30005e-008
Heightened Def Con from 1.30005e-008 ++++++++++++++++++++to 1.30011e-008
Heightened Def Con from 1.30011e-008 ++++++++++++++++++++to 1.30017e-008
Heightened Def Con from 1.30017e-008 ++++++++++++++++++++to 1.30023e-008
Heightened Def Con from 1.30023e-008 ++++++++++++++++++++to 1.30024e-008
Heightened Def Con from 1.30024e-008 ++++++++++++++++++++to 1.30025e-008
Heightened Def Con from 1.30025e-008 ++++++++++++++++++++to 1.30026e-008
Heightened Def Con from 1.30026e-008 ++++++++++++++++++++to 1.30026e-008
Heightened Def Con from 1.30026e-008 ++++++++++++++++++++to 1.30032e-008
Heightened Def Con from 1.30032e-008 +++++++++++++++++++to 1.30033e-008
Heightened Def Con from 1.30033e-008 ++++++++++++++++++to 1.30033e-008
Heightened Def Con from 1.30035e-008 to 1.30035e-008
Heightened Def Con from 1.35e-008 +++++to 1.35e-008
Heightened Def Con from 1.35e-008 to 1.35e-008
Heightened Def Con from 1.4e-008 ++to 1.4e-008
Heightened Def Con from 1.4e-008 to 1.4e-008
Heightened Def Con from 1.4e-008 +++++++++++++++++++++to 1.4e-008
Heightened Def Con from 1.4e-008 ++++++++++++++++++++to 1.4e-008
Heightened Def Con from 1.4e-008 +++++++++++++++++++to 1.40005e-008
Heightened Def Con from 1.40005e-008 +++++++++++++to 1.40005e-008
Heightened Def Con from 1.40005e-008 ++++++++++++to 1.40005e-008
Heightened Def Con from 1.40005e-008 ++++++++++++to 1.40005e-008
Heightened Def Con from 1.40005e-008 ++++++++++++to 1.40005e-008
Heightened Def Con from 1.40005e-008 ++++++++++++to 1.40005e-008
Heightened Def Con from 1.40005e-008 ++++++++++++to 1.40005e-008
Heightened Def Con from 1.40005e-008 ++++++++++++to 1.40005e-008
Heightened Def Con from 1.40005e-008 ++++++++++++to 1.40005e-008
Heightened Def Con from 1.40005e-008 ++++++++++++to 1.40005e-008
Heightened Def Con from 1.40005e-008 ++++++++++++to 1.40005e-008
Heightened Def Con from 1.40005e-008 ++++++++++++to 1.40005e-008
Heightened Def Con from 1.40005e-008 ++++++++++++to 1.40005e-008
Heightened Def Con from 1.40005e-008 ++++++++++++to 1.40005e-008
Heightened Def Con from 1.40005e-008 ++++++++++++to 1.40005e-008
Heightened Def Con from 1.40005e-008 ++++++++++++to 1.40005e-008
Heightened Def Con from 1.40005e-008 ++++++++++++to 1.40005e-008
Heightened Def Con from 1.40005e-008 ++++++++++++to 1.40005e-008
Heightened Def Con from 1.40005e-008 ++++++++++++to 1.40005e-008
Heightened Def Con from 1.40005e-008 ++++++++++++to 1.40005e-008
Heightened Def Con from 1.40005e-008 ++++++++++++to 1.40005e-008
Heightened Def Con from 1.40005e-008 ++++++++++++to 1.40005e-008
Heightened Def Con from 1.40005e-008 +++++++++++to 1.40005e-008
Heightened Def Con from 1.45e-008 ++to 1.45e-008
Heightened Def Con from 1.45e-008 to 1.45e-008
Heightened Def Con from 1.5e-008 to 1.5e-008
Heightened Def Con from 1.5e-008 to 1.5e-008
Heightened Def Con from 1.5e-008 +++++++++++++++++++++to 1.5e-008
Heightened Def Con from 1.5e-008 ++++++++++++++++++++to 1.5e-008
Heightened Def Con from 1.5e-008 +++++++++++++++++++to 1.5e-008
Heightened Def Con from 1.5e-008 +++++++++++++++++++to 1.5e-008
Heightened Def Con from 1.5e-008 +++++++++++++++++to 1.5e-008
Heightened Def Con from 1.5e-008 ++++++++++to 1.5e-008
Heightened Def Con from 1.5e-008 to 1.5e-008
Heightened Def Con from 1.5e-008 ++++++++++++++++++++to 1.5e-008
Heightened Def Con from 1.5e-008 ++++++++++++++++++++to 1.5e-008
Heightened Def Con from 1.5e-008 ++++++++++++++++++++to 1.5e-008
Heightened Def Con from 1.5e-008 ++++++++++++++++++++to 1.5e-008
Heightened Def Con from 1.5e-008 +++++++++++++++++++to 1.50005e-008
Heightened Def Con from 1.50005e-008 ++++++++++++++to 1.50005e-008
Heightened Def Con from 1.50005e-008 ++++++++++++to 1.50005e-008
Heightened Def Con from 1.5001e-008 to 1.5001e-008
Heightened Def Con from 1.55e-008 +++++++++++++++++++++to 1.55e-008
Heightened Def Con from 1.55e-008 ++++++++++++++++++++to 1.55e-008
Heightened Def Con from 1.55e-008 +++++++++++++++++++to 1.55e-008
Heightened Def Con from 1.55e-008 ++++++++++++++to 1.55e-008
Heightened Def Con from 1.6e-008 ++++++to 1.6e-008
Heightened Def Con from 1.6e-008 +++++++++to 1.6e-008
Heightened Def Con from 1.6e-008 ++++++++++to 1.6e-008
Heightened Def Con from 1.6e-008 +++++++++++to 1.6e-008
Heightened Def Con from 1.6e-008 ++++++++++++to 1.6e-008
Heightened Def Con from 1.6e-008 ++++++++++++to 1.6e-008
Heightened Def Con from 1.6e-008 ++++++++++++++++++++to 1.6e-008
Heightened Def Con from 1.6e-008 ++++++++++++++++++++to 1.6e-008
Heightened Def Con from 1.6e-008 ++++++++++++++++++++to 1.6e-008
Heightened Def Con from 1.6e-008 ++++++++++++++++++++to 1.6e-008
Heightened Def Con from 1.6e-008 ++++++++++++++++++++to 1.6e-008
Heightened Def Con from 1.6e-008 +++++++++++++++++++to 1.60001e-008
Heightened Def Con from 1.60001e-008 +++++++++++++++to 1.60001e-008
Heightened Def Con from 1.60001e-008 +++++++++++++to 1.60001e-008
Heightened Def Con from 1.60001e-008 ++++++++to 1.60002e-008
Heightened Def Con from 1.60003e-008 +to 1.60003e-008
Heightened Def Con from 1.60004e-008 to 1.60004e-008
Heightened Def Con from 1.60004e-008 +to 1.60004e-008
Heightened Def Con from 1.65e-008 to 1.65e-008
Heightened Def Con from 1.65e-008 to 1.65e-008
Heightened Def Con from 1.65e-008 +++++++++++++++++++++to 1.65e-008
Heightened Def Con from 1.65e-008 +++++++++++++++++++++to 1.65e-008
Heightened Def Con from 1.65e-008 +++++++++++++++++++++to 1.65039e-008
Heightened Def Con from 1.65039e-008 ++++++++++++++++++++to 1.6504e-008
Heightened Def Con from 1.6504e-008 ++++++++++++++++++++to 1.65046e-008
Heightened Def Con from 1.65046e-008 +++++++++++++++++++to 1.65046e-008
Heightened Def Con from 1.65046e-008 +++++++++++++++++++to 1.65046e-008
Heightened Def Con from 1.65046e-008 +++++++++++++++++++to 1.65046e-008
Heightened Def Con from 1.65046e-008 +++++++++++++++++++to 1.65046e-008
Heightened Def Con from 1.65046e-008 +++++++++++++++++++to 1.65046e-008
Heightened Def Con from 1.65046e-008 +++++++++++++++++++to 1.65046e-008
Heightened Def Con from 1.65046e-008 +++++++++++++++++++to 1.65046e-008
Heightened Def Con from 1.65046e-008 +++++++++++++++++++to 1.65046e-008
Heightened Def Con from 1.65046e-008 +++++++++++++++++++to 1.65047e-008
Heightened Def Con from 1.65047e-008 +++++++++++++++++++to 1.65047e-008
Heightened Def Con from 1.65047e-008 +++++++++++++++++++to 1.65047e-008
Heightened Def Con from 1.65047e-008 +++++++++++++++++++to 1.65047e-008
Heightened Def Con from 1.65047e-008 +++++++++++++++++++to 1.65047e-008
Heightened Def Con from 1.65047e-008 +++++++++++++++++++to 1.65047e-008
Heightened Def Con from 1.65047e-008 +++++++++++++++++++to 1.65047e-008
Heightened Def Con from 1.65047e-008 +++++++++++++++++++to 1.65047e-008
Heightened Def Con from 1.65047e-008 +++++++++++++++++++to 1.65047e-008
Heightened Def Con from 1.65047e-008 +++++++++++++++++++to 1.65047e-008
Heightened Def Con from 1.65047e-008 +++++++++++++++++++to 1.65047e-008
Heightened Def Con from 1.65047e-008 +++++++++++++++++++to 1.65047e-008
Heightened Def Con from 1.65047e-008 +++++++++++++++++++to 1.65047e-008
Heightened Def Con from 1.65047e-008 +++++++++++++++++++to 1.65047e-008
Heightened Def Con from 1.65047e-008 +++++++++++++++++++to 1.65047e-008
Heightened Def Con from 1.65047e-008 +++++++++++++++++++to 1.65047e-008
Heightened Def Con from 1.65047e-008 +++++++++++++++++++to 1.65047e-008
Heightened Def Con from 1.65047e-008 +++++++++++++++++++to 1.65047e-008
Heightened Def Con from 1.65047e-008 +++++++++++++++++++to 1.65047e-008
Heightened Def Con from 1.65047e-008 +++++++++++++++++++to 1.65048e-008
Heightened Def Con from 1.65048e-008 +++++++++++++++to 1.65049e-008
Heightened Def Con from 1.7e-008 +++++++++++++++++++++to 1.7e-008
Heightened Def Con from 1.7e-008 +++++++++++++++++++++to 1.7e-008
Heightened Def Con from 1.7e-008 ++++++++++++++++++++to 1.7e-008
Heightened Def Con from 1.7e-008 +++++++++++++++++++to 1.7e-008
Heightened Def Con from 1.7e-008 ++++to 1.7e-008
Heightened Def Con from 1.7e-008 ++++++++to 1.7e-008
Heightened Def Con from 1.7e-008 +++++++++to 1.7e-008
Heightened Def Con from 1.7e-008 +++++++++to 1.7e-008
Heightened Def Con from 1.7e-008 ++to 1.7e-008
Heightened Def Con from 1.7e-008 to 1.7e-008
Heightened Def Con from 1.70003e-008 to 1.70003e-008
Heightened Def Con from 1.70003e-008 +to 1.70003e-008
Heightened Def Con from 1.70003e-008 +to 1.70003e-008
Heightened Def Con from 1.75e-008 +++++++++++++++++++++to 1.75e-008
Heightened Def Con from 1.75e-008 +++++++++++++++++++++to 1.75e-008
Heightened Def Con from 1.75e-008 ++++++++++++++++++++to 1.75e-008
Heightened Def Con from 1.75e-008 +++++++++++++++++++to 1.75001e-008
Heightened Def Con from 1.75001e-008 +++to 1.75002e-008
Heightened Def Con from 1.8e-008 +++++++++++++++++++++to 1.8e-008
Heightened Def Con from 1.8e-008 +++++++++++++++++++++to 1.8e-008
Heightened Def Con from 1.8e-008 ++++++++++++++++++++to 1.8e-008
Heightened Def Con from 1.8e-008 +++++++++++++++++++to 1.8e-008
Heightened Def Con from 1.8e-008 +++++++++++++++++to 1.8e-008
Heightened Def Con from 1.8e-008 +++to 1.8e-008
Heightened Def Con from 1.8e-008 ++++++++++++++++++++to 1.8e-008
Heightened Def Con from 1.8e-008 ++++++++++++++++++++to 1.8e-008
Heightened Def Con from 1.8e-008 ++++++++++++++++++++to 1.8e-008
Heightened Def Con from 1.8e-008 ++++++++++++++++++++to 1.8e-008
Heightened Def Con from 1.8e-008 ++++++++++++++++++++to 1.8e-008
Heightened Def Con from 1.8e-008 ++++++++++++++++++++to 1.8e-008
Heightened Def Con from 1.8e-008 +++++++++++++++++++to 1.80001e-008
Heightened Def Con from 1.80001e-008 +++++++++++++++to 1.80001e-008
Heightened Def Con from 1.80001e-008 +++++++++++++to 1.80001e-008
Heightened Def Con from 1.80001e-008 ++++++++to 1.80002e-008
Heightened Def Con from 1.80002e-008 +++++++to 1.80002e-008
Heightened Def Con from 1.80002e-008 +++++++to 1.80002e-008
Heightened Def Con from 1.80002e-008 ++++++to 1.80002e-008
Heightened Def Con from 1.80003e-008 +++++++++++++++++++++to 1.80004e-008
Heightened Def Con from 1.80004e-008 ++++++++++++++++++++to 1.80004e-008
Heightened Def Con from 1.80004e-008 ++++++++++++++++++++to 1.80005e-008
Heightened Def Con from 1.80005e-008 ++++++++++++++++++++to 1.80006e-008
Heightened Def Con from 1.80006e-008 ++++++++++++++++++++to 1.80012e-008
Heightened Def Con from 1.80012e-008 ++++++++++++++++++++to 1.80013e-008
Heightened Def Con from 1.80013e-008 ++++++++++++++++++++to 1.80019e-008
Heightened Def Con from 1.80019e-008 ++++++++++++++++++++to 1.80025e-008
Heightened Def Con from 1.80025e-008 ++++++++++++++++++++to 1.80031e-008
Heightened Def Con from 1.80031e-008 ++++++++++++++++++++to 1.80037e-008
Heightened Def Con from 1.80037e-008 ++++++++++++++++++++to 1.80043e-008
Heightened Def Con from 1.80043e-008 ++++++++++++++++++++to 1.80049e-008
Heightened Def Con from 1.80049e-008 ++++++++++++++++++++to 1.8005e-008
Heightened Def Con from 1.8005e-008 ++++++++++++++++++++to 1.80051e-008
Heightened Def Con from 1.80051e-008 ++++++++++++++++++++to 1.80052e-008
Heightened Def Con from 1.80052e-008 ++++++++++++++++++++to 1.80053e-008
Heightened Def Con from 1.80053e-008 ++++++++++++++++++++to 1.80053e-008
Heightened Def Con from 1.80053e-008 ++++++++++++++++++++to 1.80054e-008
Heightened Def Con from 1.80054e-008 ++++++++++++++++++++to 1.8006e-008
Heightened Def Con from 1.8006e-008 ++++++++++++++++++++to 1.80451e-008
Heightened Def Con from 1.80451e-008 +++++++++++++++++++to 1.80451e-008
Heightened Def Con from 1.80451e-008 +++++++++++++++to 1.80457e-008
Heightened Def Con from 1.80457e-008 ++++++++++++to 1.80463e-008
Heightened Def Con from 1.80463e-008 ++++++++++to 1.80469e-008
Heightened Def Con from 1.80469e-008 ++++++++to 1.80475e-008
Heightened Def Con from 1.80475e-008 ++++++to 1.80481e-008
Heightened Def Con from 1.80481e-008 +++to 1.80487e-008
Heightened Def Con from 1.85e-008 ++to 1.85e-008
Heightened Def Con from 1.85e-008 to 1.85e-008
Heightened Def Con from 1.85003e-008 to 1.85003e-008
Heightened Def Con from 1.85003e-008 to 1.85003e-008
Heightened Def Con from 1.85003e-008 to 1.85003e-008
Heightened Def Con from 1.9e-008 +++++++++++++++++++++to 1.9e-008
Heightened Def Con from 1.9e-008 +++++++++++++++++++++to 1.9e-008
Heightened Def Con from 1.9e-008 +++++++++++++++++++++to 1.9e-008
Heightened Def Con from 1.9e-008 +++++++++++++++++++++to 1.9e-008
Heightened Def Con from 1.9e-008 +++++++++++++++++++++to 1.90039e-008
Heightened Def Con from 1.90039e-008 ++++++++++++++++++++to 1.9004e-008
Heightened Def Con from 1.9004e-008 ++++++++++++++++++++to 1.90046e-008
Heightened Def Con from 1.90046e-008 ++++++++++++++++++++to 1.90052e-008
Heightened Def Con from 1.90052e-008 ++++++++++++++++++++to 1.90053e-008
Heightened Def Con from 1.90053e-008 ++++++++++++++++++++to 1.90059e-008
Heightened Def Con from 1.90059e-008 ++++++++++++++++++++to 1.9006e-008
Heightened Def Con from 1.9006e-008 ++++++++++++++++++++to 1.9006e-008
Heightened Def Con from 1.9006e-008 ++++++++++++++++++++to 1.90061e-008
Heightened Def Con from 1.90061e-008 ++++++++++++++++++++to 1.90062e-008
Heightened Def Con from 1.90062e-008 ++++++++++++++++++++to 1.90063e-008
Heightened Def Con from 1.90063e-008 ++++++++++++++++++++to 1.90063e-008
Heightened Def Con from 1.90063e-008 ++++++++++++++++++++to 1.90064e-008
Heightened Def Con from 1.90064e-008 ++++++++++++++++++++to 1.90065e-008
Heightened Def Con from 1.90065e-008 ++++++++++++++++++++to 1.90071e-008
Heightened Def Con from 1.90071e-008 ++++++++++++++++++++to 1.90462e-008
Heightened Def Con from 1.90462e-008 ++++++++++++++++++++to 1.90852e-008
Heightened Def Con from 1.90852e-008 ++++++++++++++++++++to 1.91243e-008
Heightened Def Con from 1.91243e-008 ++++++++++++++++++++to 1.91634e-008
Heightened Def Con from 1.91634e-008 ++++++++++++++++++++to 1.92024e-008
Heightened Def Con from 1.92024e-008 ++++++++++++++++++++to 1.92415e-008
Heightened Def Con from 1.92415e-008 ++++++++++++++++++++to 1.92806e-008
Heightened Def Con from 1.92806e-008 ++++++++++++++++++++to 1.93196e-008
Heightened Def Con from 1.93196e-008 ++++++++++++++++++++to 1.93587e-008
Heightened Def Con from 1.93587e-008 ++++++++++++++++++++to 1.93977e-008
Heightened Def Con from 1.93977e-008 ++++++++++++++++++++to 1.94368e-008
Heightened Def Con from 1.94368e-008 ++++++++++++++++++++to 1.95e-008
Heightened Def Con from 1.95e-008 ++++++++++++++++++++to 1.95e-008
Heightened Def Con from 1.95e-008 ++++++++++++++++++++to 1.95e-008
Heightened Def Con from 1.95e-008 ++++++++++++++++++++to 1.95e-008
Heightened Def Con from 1.95e-008 ++++++++++++++++++++to 1.95e-008
Heightened Def Con from 1.95e-008 ++++++++++++++++++++to 1.95e-008
Heightened Def Con from 1.95e-008 ++++++++++++++++++++to 1.95e-008
Heightened Def Con from 1.95e-008 ++++++++++++++++++++to 1.95001e-008
Heightened Def Con from 1.95001e-008 ++++++++++++++++++++to 1.95001e-008
Heightened Def Con from 1.95001e-008 ++++++++++++++++++++to 1.95007e-008
Heightened Def Con from 1.95007e-008 ++++++++++++++++++++to 1.95008e-008
Heightened Def Con from 1.95008e-008 ++++++++++++++++++++to 1.95009e-008
Heightened Def Con from 1.95009e-008 ++++++++++++++++++++to 1.95015e-008
Heightened Def Con from 1.95015e-008 ++++++++++++++++++++to 1.95406e-008
Heightened Def Con from 1.95406e-008 ++++++++++++++++++++to 1.95796e-008
Heightened Def Con from 1.95796e-008 ++++++++++++++++++++to 1.96187e-008
Heightened Def Con from 1.96187e-008 ++++++++++++++++++++to 1.96578e-008
Heightened Def Con from 1.96578e-008 ++++++++++++++++++++to 1.96968e-008
Heightened Def Con from 1.96968e-008 ++++++++++++++++++++to 1.97359e-008
Heightened Def Con from 1.97359e-008 ++++++++++++++++++++to 1.97749e-008
Heightened Def Con from 1.97749e-008 ++++++++++++++++++++to 1.9814e-008
Heightened Def Con from 1.9814e-008 ++++++++++++++++++++to 1.98531e-008
Heightened Def Con from 1.98531e-008 ++++++++++++++++++++to 1.98921e-008
Heightened Def Con from 1.98921e-008 ++++++++++++++++++++to 1.99312e-008
Heightened Def Con from 1.99312e-008 ++++++++++++++++++++to 2e-008
Heightened Def Con from 2e-008 ++++++++++++++++++++to 2e-008
Heightened Def Con from 2e-008 ++++++++++++++++++++to 2e-008
Heightened Def Con from 2e-008 ++++++++++++++++++++to 2e-008
Heightened Def Con from 2e-008 ++++++++++++++++++++to 2e-008
Heightened Def Con from 2e-008 ++++++++++++++++++++to 2e-008
Heightened Def Con from 2e-008 ++++++++++++++++++++to 2e-008
Heightened Def Con from 2e-008 ++++++++++++++++++++to 2e-008
Heightened Def Con from 2e-008 ++++++++++++++++++++to 2e-008
Heightened Def Con from 2e-008 ++++++++++++++++++++to 2e-008
Heightened Def Con from 2e-008 ++++++++++++++++++++to 2e-008
Heightened Def Con from 2e-008 ++++++++++++++++++++to 2e-008
Heightened Def Con from 2e-008 ++++++++++++++++++++to 2e-008
Heightened Def Con from 2e-008 ++++++++++++++++++++to 2e-008
Heightened Def Con from 2e-008 ++++++++++++++++++++to 2e-008
Heightened Def Con from 2e-008 ++++++++++++++++++++to 2e-008
Heightened Def Con from 2e-008 ++++++++++++++++++++to 2e-008
Heightened Def Con from 2e-008 ++++++++++++++++++++to 2e-008
Heightened Def Con from 2e-008 ++++++++++++++++++++to 2e-008
Heightened Def Con from 2e-008 ++++++++++++++++++++to 2.00005e-008
Heightened Def Con from 2.00005e-008 ++++++++++++++++++++to 2.00006e-008
Heightened Def Con from 2.00006e-008 ++++++++++++++++++++to 2.00012e-008
Heightened Def Con from 2.00012e-008 ++++++++++++++++++++to 2.00402e-008
Heightened Def Con from 2.00402e-008 ++++++++++++++++++++to 2.00793e-008
Heightened Def Con from 2.00793e-008 ++++++++++++++++++++to 2.01184e-008
Heightened Def Con from 2.01184e-008 ++++++++++++++++++++to 2.01574e-008
Heightened Def Con from 2.01574e-008 ++++++++++++++++++++to 2.01965e-008
Heightened Def Con from 2.01965e-008 ++++++++++++++++++++to 2.02356e-008
Heightened Def Con from 2.02356e-008 ++++++++++++++++++++to 2.02746e-008
Heightened Def Con from 2.02746e-008 ++++++++++++++++++++to 2.03137e-008
Heightened Def Con from 2.03137e-008 ++++++++++++++++++++to 2.03527e-008
Heightened Def Con from 2.03527e-008 ++++++++++++++++++++to 2.03918e-008
Heightened Def Con from 2.03918e-008 ++++++++++++++++++++to 2.04309e-008
Heightened Def Con from 2.04309e-008 ++++++++++++++++++++to 2.05e-008
Heightened Def Con from 2.05e-008 ++++++++++++++++++++to 2.05e-008
Heightened Def Con from 2.05e-008 ++++++++++++++++++++to 2.05e-008
Heightened Def Con from 2.05e-008 ++++++++++++++++++++to 2.05e-008
Heightened Def Con from 2.05e-008 ++++++++++++++++++++to 2.05e-008
Heightened Def Con from 2.05e-008 ++++++++++++++++++++to 2.05039e-008
Heightened Def Con from 2.05039e-008 ++++++++++++++++++++to 2.0543e-008
Heightened Def Con from 2.0543e-008 ++++++++++++++++++++to 2.0582e-008
Heightened Def Con from 2.0582e-008 ++++++++++++++++++++to 2.06211e-008
Heightened Def Con from 2.06211e-008 ++++++++++++++++++++to 2.06602e-008
Heightened Def Con from 2.06602e-008 ++++++++++++++++++++to 2.06992e-008
Heightened Def Con from 2.06992e-008 ++++++++++++++++++++to 2.07383e-008
Heightened Def Con from 2.07383e-008 ++++++++++++++++++++to 2.07773e-008
Heightened Def Con from 2.07773e-008 ++++++++++++++++++++to 2.08164e-008
Heightened Def Con from 2.08164e-008 ++++++++++++++++++++to 2.08555e-008
Heightened Def Con from 2.08555e-008 ++++++++++++++++++++to 2.08945e-008
Heightened Def Con from 2.08945e-008 ++++++++++++++++++++to 2.09336e-008
Heightened Def Con from 2.09336e-008 ++++++++++++++++++++to 2.1e-008
Heightened Def Con from 2.1e-008 ++++++++++++++++++++to 2.1e-008
Heightened Def Con from 2.1e-008 ++++++++++++++++++++to 2.1e-008
Heightened Def Con from 2.1e-008 ++++++++++++++++++++to 2.1e-008
Heightened Def Con from 2.1e-008 ++++++++++++++++++++to 2.1e-008
Heightened Def Con from 2.1e-008 ++++++++++++++++++++to 2.1e-008
Heightened Def Con from 2.1e-008 ++++++++++++++++++++to 2.1e-008
Heightened Def Con from 2.1e-008 ++++++++++++++++++++to 2.1e-008
Heightened Def Con from 2.1e-008 ++++++++++++++++++++to 2.1e-008
Heightened Def Con from 2.1e-008 ++++++++++++++++++++to 2.1e-008
Heightened Def Con from 2.1e-008 ++++++++++++++++++++to 2.10005e-008
Heightened Def Con from 2.10005e-008 ++++++++++++++++++++to 2.10006e-008
Heightened Def Con from 2.10006e-008 ++++++++++++++++++++to 2.10012e-008
Heightened Def Con from 2.10012e-008 +++++++++++++++++++to 2.10013e-008
Heightened Def Con from 2.10013e-008 ++++++++++++++++to 2.10013e-008
Heightened Def Con from 2.10013e-008 +++++++++++++++to 2.10014e-008
Heightened Def Con from 2.10014e-008 ++++++to 2.10014e-008
Heightened Def Con from 2.10022e-008 +to 2.10022e-008
Heightened Def Con from 2.10022e-008 to 2.10022e-008
Heightened Def Con from 2.15e-008 +++++++++++++++++++++to 2.15e-008
Heightened Def Con from 2.15e-008 ++++++++++++++++++++to 2.15e-008
Heightened Def Con from 2.15e-008 +++++++++++++++++++to 2.15e-008
Heightened Def Con from 2.15e-008 ++++++++++++++to 2.15e-008
Heightened Def Con from 2.15009e-008 to 2.15009e-008
Heightened Def Con from 2.2e-008 +++++++++++++++++++++to 2.2e-008
Heightened Def Con from 2.2e-008 ++++++++++++++++++++to 2.2e-008
Heightened Def Con from 2.2e-008 +++++++++++++++++++to 2.2e-008
Heightened Def Con from 2.2e-008 ++++++++++++++to 2.2e-008
Heightened Def Con from 2.2e-008 to 2.2e-008
Heightened Def Con from 2.2e-008 to 2.2e-008
Heightened Def Con from 2.2e-008 to 2.2e-008
Heightened Def Con from 2.25e-008 to 2.25e-008
Heightened Def Con from 2.25e-008 to 2.25e-008
Heightened Def Con from 2.25e-008 +++++++++++++++++++++to 2.25e-008
Heightened Def Con from 2.25e-008 ++++++++++++++++++++to 2.25e-008
Heightened Def Con from 2.25e-008 +++++++++++++++++++to 2.25e-008
Heightened Def Con from 2.25e-008 ++++++++++++++to 2.25005e-008
Heightened Def Con from 2.25005e-008 ++++to 2.25011e-008
Heightened Def Con from 2.25011e-008 to 2.25408e-008
Heightened Def Con from 2.3e-008 +++++++to 2.3e-008
Heightened Def Con from 2.3e-008 +to 2.3e-008
Heightened Def Con from 2.3e-008 to 2.3e-008
Heightened Def Con from 2.35e-008 +++++++++++++++++++++to 2.35e-008
Heightened Def Con from 2.35e-008 ++++++++++++++++++++to 2.35e-008
Heightened Def Con from 2.35e-008 +++++++++++++++++++to 2.35e-008
Heightened Def Con from 2.35e-008 ++++++++++++++to 2.35e-008
Heightened Def Con from 2.4e-008 ++++to 2.4e-008
Heightened Def Con from 2.4e-008 +++++++++++++++++++++to 2.4e-008
Heightened Def Con from 2.4e-008 ++++++++++++++++++++to 2.4e-008
Heightened Def Con from 2.4e-008 +++++++++++++++++to 2.40001e-008
Heightened Def Con from 2.40001e-008 +++++++++++++++to 2.40001e-008
Heightened Def Con from 2.40001e-008 ++++++to 2.40001e-008
Heightened Def Con from 2.40003e-008 +++++++++++++++++++++to 2.40004e-008
Heightened Def Con from 2.40004e-008 ++++++++++++++++++++to 2.40004e-008
Heightened Def Con from 2.40004e-008 ++++++++++++++++++++to 2.4001e-008
Heightened Def Con from 2.4001e-008 ++++++++++++++++++++to 2.40059e-008
Heightened Def Con from 2.40059e-008 ++++++++++++++++++++to 2.4045e-008
Heightened Def Con from 2.4045e-008 ++++++++++++++++++++to 2.4084e-008
Heightened Def Con from 2.4084e-008 ++++++++++++++++++++to 2.41231e-008
Heightened Def Con from 2.41231e-008 ++++++++++++++++++++to 2.41622e-008
Heightened Def Con from 2.41622e-008 ++++++++++++++++++++to 2.42012e-008
Heightened Def Con from 2.42012e-008 ++++++++++++++++++++to 2.42403e-008
Heightened Def Con from 2.42403e-008 ++++++++++++++++++++to 2.42794e-008
Heightened Def Con from 2.42794e-008 ++++++++++++++++++++to 2.43184e-008
Heightened Def Con from 2.43184e-008 ++++++++++++++++++++to 2.43575e-008
Heightened Def Con from 2.43575e-008 ++++++++++++++++++++to 2.43965e-008
Heightened Def Con from 2.43965e-008 ++++++++++++++++++++to 2.44356e-008
Heightened Def Con from 2.44356e-008 ++++++++++++++++++++to 2.45e-008
Heightened Def Con from 2.45e-008 ++++++++++++++++++++to 2.45e-008
Heightened Def Con from 2.45e-008 ++++++++++++++++++++to 2.45e-008
Heightened Def Con from 2.45e-008 ++++++++++++++++++++to 2.45e-008
Heightened Def Con from 2.45e-008 ++++++++++++++++++++to 2.45e-008
Heightened Def Con from 2.45e-008 ++++++++++++++++++++to 2.45039e-008
Heightened Def Con from 2.45039e-008 ++++++++++++++++++++to 2.4543e-008
Heightened Def Con from 2.4543e-008 ++++++++++++++++++++to 2.4582e-008
Heightened Def Con from 2.4582e-008 ++++++++++++++++++++to 2.46211e-008
Heightened Def Con from 2.46211e-008 ++++++++++++++++++++to 2.46602e-008
Heightened Def Con from 2.46602e-008 ++++++++++++++++++++to 2.46992e-008
Heightened Def Con from 2.46992e-008 ++++++++++++++++++++to 2.47383e-008
Heightened Def Con from 2.47383e-008 ++++++++++++++++++++to 2.47773e-008
Heightened Def Con from 2.47773e-008 ++++++++++++++++++++to 2.48164e-008
Heightened Def Con from 2.48164e-008 ++++++++++++++++++++to 2.48555e-008
Heightened Def Con from 2.48555e-008 ++++++++++++++++++++to 2.48945e-008
Heightened Def Con from 2.48945e-008 ++++++++++++++++++++to 2.49336e-008
Heightened Def Con from 2.49336e-008 ++++++++++++++++++++to 2.5e-008
Heightened Def Con from 2.5e-008 ++++++++++++++++++++to 2.5e-008
Heightened Def Con from 2.5e-008 ++++++++++++++++++++to 2.5e-008
Heightened Def Con from 2.5e-008 ++++++++++++++++++++to 2.5e-008
Heightened Def Con from 2.5e-008 ++++++++++++++++++++to 2.5e-008
Heightened Def Con from 2.5e-008 ++++++++++++++++++++to 2.5e-008
Heightened Def Con from 2.5e-008 ++++++++++++++++++++to 2.50005e-008
Heightened Def Con from 2.50005e-008 ++++++++++++++++++++to 2.50011e-008
Heightened Def Con from 2.50011e-008 ++++++++++++++++++++to 2.50017e-008
Heightened Def Con from 2.50017e-008 ++++++++++++++++++++to 2.50023e-008
Heightened Def Con from 2.50023e-008 ++++++++++++++++++++to 2.50024e-008
Heightened Def Con from 2.50024e-008 ++++++++++++++++++++to 2.50025e-008
Heightened Def Con from 2.50025e-008 ++++++++++++++++++++to 2.50026e-008
Heightened Def Con from 2.50026e-008 ++++++++++++++++++++to 2.50026e-008
Heightened Def Con from 2.50026e-008 ++++++++++++++++++++to 2.50032e-008
Heightened Def Con from 2.50032e-008 ++++++++++++++++++++to 2.50038e-008
Heightened Def Con from 2.50038e-008 ++++++++++++++++++++to 2.50045e-008
Heightened Def Con from 2.50045e-008 ++++++++++++++++++++to 2.50051e-008
Heightened Def Con from 2.50051e-008 ++++++++++++++++++++to 2.50051e-008
Heightened Def Con from 2.50051e-008 ++++++++++++++++++++to 2.50052e-008
Heightened Def Con from 2.50052e-008 ++++++++++++++++++++to 2.50053e-008
Heightened Def Con from 2.50053e-008 ++++++++++++++++++++to 2.50054e-008
Heightened Def Con from 2.50054e-008 ++++++++++++++++++++to 2.50054e-008
Heightened Def Con from 2.50054e-008 ++++++++++++++++++++to 2.50061e-008
Heightened Def Con from 2.50061e-008 ++++++++++++++++++++to 2.50451e-008
Heightened Def Con from 2.50451e-008 +++++++++++++++++++to 2.50451e-008
Heightened Def Con from 2.50451e-008 +++++++++++++++to 2.50457e-008
Heightened Def Con from 2.50457e-008 +++++++++++to 2.50463e-008
Heightened Def Con from 2.50463e-008 ++++++++to 2.5047e-008
Heightened Def Con from 2.5047e-008 +++++to 2.50476e-008
Heightened Def Con from 2.50476e-008 ++to 2.50482e-008
Heightened Def Con from 2.55e-008 +++++to 2.55e-008
Heightened Def Con from 2.55e-008 to 2.55e-008
Heightened Def Con from 2.6e-008 ++to 2.6e-008
Heightened Def Con from 2.6e-008 to 2.6e-008
Heightened Def Con from 2.6e-008 +++++++++++++++++++++to 2.6e-008
Heightened Def Con from 2.6e-008 ++++++++++++++++++++to 2.6e-008
Heightened Def Con from 2.6e-008 +++++++++++++++++++to 2.60005e-008
Heightened Def Con from 2.60005e-008 +++++++++++++to 2.60005e-008
Heightened Def Con from 2.60005e-008 ++++++++++++to 2.60005e-008
Heightened Def Con from 2.60005e-008 ++++++++++++to 2.60005e-008
Heightened Def Con from 2.60005e-008 ++++++++++++to 2.60005e-008
Heightened Def Con from 2.60005e-008 ++++++++++++to 2.60005e-008
Heightened Def Con from 2.60005e-008 ++++++++++++to 2.60005e-008
Heightened Def Con from 2.60005e-008 ++++++++++++to 2.60005e-008
Heightened Def Con from 2.60005e-008 ++++++++++++to 2.60005e-008
Heightened Def Con from 2.60005e-008 ++++++++++++to 2.60005e-008
Heightened Def Con from 2.60005e-008 ++++++++++++to 2.60005e-008
Heightened Def Con from 2.60005e-008 ++++++++++++to 2.60005e-008
Heightened Def Con from 2.60005e-008 ++++++++++++to 2.60005e-008
Heightened Def Con from 2.60005e-008 ++++++++++++to 2.60005e-008
Heightened Def Con from 2.60005e-008 ++++++++++++to 2.60005e-008
Heightened Def Con from 2.60005e-008 ++++++++++++to 2.60005e-008
Heightened Def Con from 2.60005e-008 ++++++++++++to 2.60005e-008
Heightened Def Con from 2.60005e-008 ++++++++++++to 2.60005e-008
Heightened Def Con from 2.60005e-008 ++++++++++++to 2.60005e-008
Heightened Def Con from 2.60005e-008 ++++++++++++to 2.60005e-008
Heightened Def Con from 2.60005e-008 ++++++++++++to 2.60005e-008
Heightened Def Con from 2.60005e-008 ++++++++++++to 2.60005e-008
Heightened Def Con from 2.60005e-008 +++++++++++to 2.60005e-008
Heightened Def Con from 2.65e-008 ++to 2.65e-008
Heightened Def Con from 2.65e-008 to 2.65e-008
Heightened Def Con from 2.7e-008 to 2.7e-008
Heightened Def Con from 2.7e-008 to 2.7e-008
Heightened Def Con from 2.7e-008 +++++++++++++++++++++to 2.7e-008
Heightened Def Con from 2.7e-008 ++++++++++++++++++++to 2.7e-008
Heightened Def Con from 2.7e-008 +++++++++++++++++++to 2.7e-008
Heightened Def Con from 2.7e-008 +++++++++++++to 2.7e-008
Heightened Def Con from 2.7e-008 to 2.7e-008
Heightened Def Con from 2.7e-008 ++++++++++++++++++++to 2.7e-008
Heightened Def Con from 2.7e-008 ++++++++++++++++++++to 2.7e-008
Heightened Def Con from 2.7e-008 ++++++++++++++++++++to 2.7e-008
Heightened Def Con from 2.7e-008 ++++++++++++++++++++to 2.7e-008
Heightened Def Con from 2.7e-008 +++++++++++++++++++to 2.70005e-008
Heightened Def Con from 2.70005e-008 +++++++++++++to 2.70005e-008
Heightened Def Con from 2.70005e-008 ++++++++++++to 2.70005e-008
Heightened Def Con from 2.70005e-008 ++++++++++++to 2.70005e-008
Heightened Def Con from 2.70005e-008 ++++++++++++to 2.70005e-008
Heightened Def Con from 2.70005e-008 ++++++++++++to 2.70005e-008
Heightened Def Con from 2.70005e-008 ++++++++++++to 2.70005e-008
Heightened Def Con from 2.70005e-008 ++++++++++++to 2.70005e-008
Heightened Def Con from 2.70005e-008 ++++++++++++to 2.70005e-008
Heightened Def Con from 2.70005e-008 ++++++++++++to 2.70005e-008
Heightened Def Con from 2.70005e-008 +++++++++++++++++++++to 2.70396e-008
Heightened Def Con from 2.70396e-008 ++++++++++++++++++++to 2.70402e-008
Heightened Def Con from 2.70402e-008 ++++++++++++++++++to 2.70402e-008
Heightened Def Con from 2.70402e-008 ++++++++++++++++to 2.70402e-008
Heightened Def Con from 2.70402e-008 +++++++++++++++to 2.70402e-008
Heightened Def Con from 2.70402e-008 +++++++++++++++to 2.70402e-008
Heightened Def Con from 2.70402e-008 +++++++++++++++to 2.70402e-008
Heightened Def Con from 2.70402e-008 +++++++++++++++to 2.70402e-008
Heightened Def Con from 2.70402e-008 +++++++++++++++to 2.70402e-008
Heightened Def Con from 2.70402e-008 +++++++++++++++to 2.70402e-008
Heightened Def Con from 2.70402e-008 ++++++++++++to 2.70402e-008
Heightened Def Con from 2.70402e-008 to 2.70402e-008
Heightened Def Con from 2.75e-008 +++++++++++++++++++++to 2.75e-008
Heightened Def Con from 2.75e-008 ++++++++++++++++++++to 2.75e-008
Heightened Def Con from 2.75e-008 +++++++++++++++++++to 2.75e-008
Heightened Def Con from 2.75e-008 ++++++++++++++to 2.75e-008
Heightened Def Con from 2.8e-008 ++++++++to 2.8e-008
Heightened Def Con from 2.8e-008 ++++++++++++++++++++to 2.8e-008
Heightened Def Con from 2.8e-008 +++++++++++++++++++to 2.8e-008
Heightened Def Con from 2.8e-008 +++++++++++++++++++to 2.8e-008
Heightened Def Con from 2.8e-008 +++++++++++++++++++to 2.8e-008
Heightened Def Con from 2.8e-008 +++++++++++++++++++to 2.8e-008
Heightened Def Con from 2.8e-008 +++++++++++++++to 2.8e-008
Heightened Def Con from 2.8e-008 ++++++to 2.8e-008
Heightened Def Con from 2.8e-008 +to 2.8e-008
Heightened Def Con from 2.8e-008 to 2.8e-008
Heightened Def Con from 2.8e-008 to 2.8e-008
Heightened Def Con from 2.80003e-008 +to 2.80003e-008
Heightened Def Con from 2.85e-008 to 2.85e-008
Heightened Def Con from 2.85e-008 to 2.85e-008
Heightened Def Con from 2.85e-008 +++++++++++++++++++++to 2.85e-008
Heightened Def Con from 2.85e-008 +++++++++++++++++++++to 2.85e-008
Heightened Def Con from 2.85e-008 +++++++++++++++++++++to 2.85039e-008
Heightened Def Con from 2.85039e-008 ++++++++++++++++++++to 2.8504e-008
Heightened Def Con from 2.8504e-008 ++++++++++++++++++++to 2.85046e-008
Heightened Def Con from 2.85046e-008 +++++++++++++++++++to 2.85046e-008
Heightened Def Con from 2.85046e-008 +++++++++++++++++++to 2.85046e-008
Heightened Def Con from 2.85046e-008 +++++++++++++++++++to 2.85046e-008
Heightened Def Con from 2.85046e-008 +++++++++++++++++++to 2.85046e-008
Heightened Def Con from 2.85046e-008 +++++++++++++++++++to 2.85046e-008
Heightened Def Con from 2.85046e-008 +++++++++++++++++++to 2.85047e-008
Heightened Def Con from 2.85047e-008 +++++++++++++++++++to 2.85047e-008
Heightened Def Con from 2.85047e-008 +++++++++++++++++++to 2.85047e-008
Heightened Def Con from 2.85047e-008 +++++++++++++++++to 2.85047e-008
Heightened Def Con from 2.85047e-008 ++++++++++to 2.85048e-008
Heightened Def Con from 2.9e-008 +++++++++++++++++++++to 2.9e-008
Heightened Def Con from 2.9e-008 ++++++++++++++++++++to 2.9e-008
Heightened Def Con from 2.9e-008 +++++++++++++++++++to 2.9e-008
Heightened Def Con from 2.9e-008 ++++++++++++++++++to 2.9e-008
Heightened Def Con from 2.9e-008 +++++++++++++to 2.9e-008
Heightened Def Con from 2.9e-008 ++to 2.9e-008
Heightened Def Con from 2.9e-008 ++++++to 2.9e-008
Heightened Def Con from 2.9e-008 ++++++++to 2.9e-008
Heightened Def Con from 2.9e-008 +++++++++to 2.9e-008
Heightened Def Con from 2.9e-008 ++++++++to 2.9e-008
Heightened Def Con from 2.9e-008 +to 2.9e-008
Heightened Def Con from 2.9e-008 to 2.9e-008
Heightened Def Con from 2.9e-008 to 2.9e-008
Heightened Def Con from 2.95e-008 +++++++++++++++++++++to 2.95e-008
Heightened Def Con from 2.95e-008 ++++++++++++++++++++to 2.95e-008
Heightened Def Con from 2.95e-008 +++++++++++++++++++to 2.95e-008
Heightened Def Con from 2.95e-008 ++++++++++++++to 2.95e-008
Heightened Def Con from 3e-008 +++++++++++++++++++++to 3e-008
Heightened Def Con from 3e-008 ++++++++++++++++++++to 3e-008
Heightened Def Con from 3e-008 +++++++++++++++++++to 3e-008
Heightened Def Con from 3e-008 ++++++++++++++to 3e-008
Heightened Def Con from 3e-008 to 3e-008
Heightened Def Con from 3e-008 to 3e-008
Heightened Def Con from 3e-008 +++++++++++++++++++++to 3e-008
Heightened Def Con from 3e-008 ++++++++++++++++++++to 3e-008
Heightened Def Con from 3e-008 ++++++++++++++++++++to 3e-008
Heightened Def Con from 3e-008 ++++++++++++++++++++to 3e-008
Heightened Def Con from 3e-008 ++++++++++++++++++++to 3e-008
Heightened Def Con from 3e-008 ++++++++++++++++++++to 3e-008
Heightened Def Con from 3e-008 +++++++++++++++++++to 3.00001e-008
Heightened Def Con from 3.00001e-008 +++++++++++++++to 3.00001e-008
Heightened Def Con from 3.00001e-008 +++++++++++++to 3.00001e-008
Heightened Def Con from 3.00001e-008 +++++++to 3.00002e-008
Heightened Def Con from 3.00003e-008 +++++++++++++++++++++to 3.00004e-008
Heightened Def Con from 3.00004e-008 ++++++++++++++++++++to 3.00004e-008
Heightened Def Con from 3.00004e-008 ++++++++++++++++++++to 3.00005e-008
Heightened Def Con from 3.00005e-008 ++++++++++++++++++++to 3.00006e-008
Heightened Def Con from 3.00006e-008 ++++++++++++++++++++to 3.00012e-008
Heightened Def Con from 3.00012e-008 ++++++++++++++++++++to 3.00018e-008
Heightened Def Con from 3.00018e-008 ++++++++++++++++++++to 3.00024e-008
Heightened Def Con from 3.00024e-008 ++++++++++++++++++++to 3.0003e-008
Heightened Def Con from 3.0003e-008 +++++++++++++++++++to 3.0003e-008
Heightened Def Con from 3.0003e-008 +++++++++++++++++to 3.00031e-008
Heightened Def Con from 3.00031e-008 +++++++++++++++to 3.00032e-008
Heightened Def Con from 3.00032e-008 ++++++to 3.00032e-008
Heightened Def Con from 3.05e-008 ++to 3.05e-008
Heightened Def Con from 3.05e-008 to 3.05e-008
Heightened Def Con from 3.1e-008 +++++++++++++++++++++to 3.1e-008
Heightened Def Con from 3.1e-008 ++++++++++++++++++++to 3.1e-008
Heightened Def Con from 3.1e-008 +++++++++++++++++++to 3.1e-008
Heightened Def Con from 3.1e-008 +++++++++++++to 3.1e-008
Heightened Def Con from 3.1e-008 to 3.1e-008
Heightened Def Con from 3.15e-008 +++++to 3.15e-008
Heightened Def Con from 3.15e-008 to 3.15e-008
Heightened Def Con from 3.2e-008 ++++++++++++++++++++to 3.2e-008
Heightened Def Con from 3.2e-008 ++++++++++++++++++++to 3.2e-008
Heightened Def Con from 3.2e-008 ++++++++++++++++++++to 3.2e-008
Heightened Def Con from 3.2e-008 ++++++++++++++++++++to 3.2e-008
Heightened Def Con from 3.2e-008 ++++++++++++++++++++to 3.2e-008
Heightened Def Con from 3.2e-008 ++++++++++++++++++++to 3.2e-008
Heightened Def Con from 3.2e-008 +++++++++++++++++++to 3.20001e-008
Heightened Def Con from 3.20001e-008 +++++++++++++++to 3.20001e-008
Heightened Def Con from 3.20001e-008 +++++++++++++to 3.20001e-008
Heightened Def Con from 3.20003e-008 +++++++++++++++++++++to 3.20004e-008
Heightened Def Con from 3.20004e-008 ++++++++++++++++++++to 3.20004e-008
Heightened Def Con from 3.20004e-008 ++++++++++++++++++++to 3.20005e-008
Heightened Def Con from 3.20005e-008 ++++++++++++++++++++to 3.20005e-008
Heightened Def Con from 3.20005e-008 ++++++++++++++++++++to 3.20005e-008
Heightened Def Con from 3.20005e-008 ++++++++++++++++++++to 3.20006e-008
Heightened Def Con from 3.20006e-008 ++++++++++++++++++++to 3.20012e-008
Heightened Def Con from 3.20012e-008 ++++++++++++++++++++to 3.20403e-008
Heightened Def Con from 3.20403e-008 ++++++++++++++++++++to 3.20793e-008
Heightened Def Con from 3.20793e-008 ++++++++++++++++++++to 3.21184e-008
Heightened Def Con from 3.21184e-008 ++++++++++++++++++++to 3.21575e-008
Heightened Def Con from 3.21575e-008 ++++++++++++++++++++to 3.21965e-008
Heightened Def Con from 3.21965e-008 ++++++++++++++++++++to 3.22356e-008
Heightened Def Con from 3.22356e-008 ++++++++++++++++++++to 3.22747e-008
Heightened Def Con from 3.22747e-008 ++++++++++++++++++++to 3.23137e-008
Heightened Def Con from 3.23137e-008 ++++++++++++++++++++to 3.23528e-008
Heightened Def Con from 3.23528e-008 ++++++++++++++++++++to 3.23918e-008
Heightened Def Con from 3.23918e-008 ++++++++++++++++++++to 3.24309e-008
Heightened Def Con from 3.24309e-008 ++++++++++++++++++++to 3.25e-008
Heightened Def Con from 3.25e-008 ++++++++++++++++++++to 3.25e-008
Heightened Def Con from 3.25e-008 ++++++++++++++++++++to 3.25e-008
Heightened Def Con from 3.25e-008 ++++++++++++++++++++to 3.25e-008
Heightened Def Con from 3.25e-008 ++++++++++++++++++++to 3.25e-008
Heightened Def Con from 3.25e-008 ++++++++++++++++++++to 3.25039e-008
Heightened Def Con from 3.25039e-008 ++++++++++++++++++++to 3.2504e-008
Heightened Def Con from 3.2504e-008 ++++++++++++++++++++to 3.2543e-008
Heightened Def Con from 3.2543e-008 ++++++++++++++++++++to 3.25821e-008
Heightened Def Con from 3.25821e-008 ++++++++++++++++++++to 3.26212e-008
Heightened Def Con from 3.26212e-008 ++++++++++++++++++++to 3.26602e-008
Heightened Def Con from 3.26602e-008 ++++++++++++++++++++to 3.26993e-008
Heightened Def Con from 3.26993e-008 ++++++++++++++++++++to 3.27384e-008
Heightened Def Con from 3.27384e-008 ++++++++++++++++++++to 3.27774e-008
Heightened Def Con from 3.27774e-008 ++++++++++++++++++++to 3.28165e-008
Heightened Def Con from 3.28165e-008 ++++++++++++++++++++to 3.28555e-008
Heightened Def Con from 3.28555e-008 ++++++++++++++++++++to 3.28946e-008
Heightened Def Con from 3.28946e-008 ++++++++++++++++++++to 3.29337e-008
Heightened Def Con from 3.29337e-008 ++++++++++++++++++++to 3.3e-008
Heightened Def Con from 3.3e-008 ++++++++++++++++++++to 3.3e-008
Heightened Def Con from 3.3e-008 ++++++++++++++++++++to 3.3e-008
Heightened Def Con from 3.3e-008 ++++++++++++++++++++to 3.3e-008
Heightened Def Con from 3.3e-008 ++++++++++++++++++++to 3.3e-008
Heightened Def Con from 3.3e-008 ++++++++++++++++++++to 3.3e-008
Heightened Def Con from 3.3e-008 ++++++++++++++++++++to 3.3e-008
Heightened Def Con from 3.3e-008 ++++++++++++++++++++to 3.3e-008
Heightened Def Con from 3.3e-008 ++++++++++++++++++++to 3.3e-008
Heightened Def Con from 3.3e-008 ++++++++++++++++++++to 3.3e-008
Heightened Def Con from 3.3e-008 ++++++++++++++++++++to 3.30001e-008
Heightened Def Con from 3.30001e-008 ++++++++++++++++++++to 3.30001e-008
Heightened Def Con from 3.30001e-008 ++++++++++++++++++++to 3.30001e-008
Heightened Def Con from 3.30001e-008 ++++++++++++++++++++to 3.30002e-008
Heightened Def Con from 3.30002e-008 ++++++++++++++++++++to 3.30003e-008
Heightened Def Con from 3.30003e-008 ++++++++++++++++++++to 3.30004e-008
Heightened Def Con from 3.30004e-008 ++++++++++++++++++++to 3.30005e-008
Heightened Def Con from 3.30005e-008 ++++++++++++++++++++to 3.30011e-008
Heightened Def Con from 3.30011e-008 +++++++++++++++++++to 3.30011e-008
Heightened Def Con from 3.30011e-008 +++++++++++++++++++to 3.30011e-008
Heightened Def Con from 3.30011e-008 +++++++++++++++++++to 3.30011e-008
Heightened Def Con from 3.30011e-008 +++++++++++++++++++to 3.30011e-008
Heightened Def Con from 3.30011e-008 +++++++++++++++++++to 3.30011e-008
Heightened Def Con from 3.30011e-008 +++++++++++++++++++to 3.30011e-008
Heightened Def Con from 3.30011e-008 +++++++++++++++++++to 3.30011e-008
Heightened Def Con from 3.30011e-008 +++++++++++++++++++to 3.30011e-008
Heightened Def Con from 3.30011e-008 +++++++++++++++++++to 3.30011e-008
Heightened Def Con from 3.30011e-008 +++++++++++++++++++to 3.30012e-008
Heightened Def Con from 3.30012e-008 +++++++++++++++++++to 3.30012e-008
Heightened Def Con from 3.30012e-008 +++++++++++++++++++to 3.30012e-008
Heightened Def Con from 3.30012e-008 ++++++++++++++++++to 3.30012e-008
Heightened Def Con from 3.30012e-008 ++++++++++++++++to 3.30013e-008
Heightened Def Con from 3.30013e-008 +++++++++++++++to 3.30013e-008
Heightened Def Con from 3.30013e-008 ++++++to 3.30013e-008
Heightened Def Con from 3.30015e-008 to 3.30015e-008
Heightened Def Con from 3.30015e-008 to 3.30015e-008
Heightened Def Con from 3.30016e-008 to 3.30016e-008
Heightened Def Con from 3.30016e-008 +to 3.30016e-008
Heightened Def Con from 3.30016e-008 +to 3.30016e-008
Heightened Def Con from 3.30023e-008 to 3.30023e-008
Heightened Def Con from 3.35e-008 +++++++++++++++++++++to 3.35e-008
Heightened Def Con from 3.35e-008 +++++++++++++++++++++to 3.35e-008
Heightened Def Con from 3.35e-008 ++++++++++++++++++++to 3.35e-008
Heightened Def Con from 3.35e-008 +++++++++++++++++++to 3.35001e-008
Heightened Def Con from 3.35001e-008 +++to 3.35002e-008
Heightened Def Con from 3.35003e-008 to 3.35003e-008
Heightened Def Con from 3.35018e-008 to 3.35018e-008
Heightened Def Con from 3.35018e-008 to 3.35018e-008
Heightened Def Con from 3.35018e-008 +to 3.35018e-008
Heightened Def Con from 3.35018e-008 +to 3.35018e-008
Heightened Def Con from 3.4e-008 +++++++++++++++++++++to 3.4e-008
Heightened Def Con from 3.4e-008 +++++++++++++++++++++to 3.4e-008
Heightened Def Con from 3.4e-008 ++++++++++++++++++++to 3.4e-008
Heightened Def Con from 3.4e-008 ++++++++++++++++++++to 3.4e-008
Heightened Def Con from 3.4e-008 ++++++++++++++++++++to 3.4e-008
Heightened Def Con from 3.4e-008 +++++++++++++++++++to 3.4e-008
Heightened Def Con from 3.4e-008 ++++++++++++++++++to 3.4e-008
Heightened Def Con from 3.4e-008 +++++++++to 3.4e-008
Heightened Def Con from 3.4e-008 to 3.4e-008
Heightened Def Con from 3.4e-008 to 3.4e-008
Heightened Def Con from 3.4e-008 to 3.4e-008
Heightened Def Con from 3.4e-008 to 3.4e-008
Heightened Def Con from 3.4e-008 to 3.4e-008
Heightened Def Con from 3.4e-008 to 3.4e-008
Heightened Def Con from 3.4e-008 to 3.4e-008
Heightened Def Con from 3.4e-008 to 3.4e-008
Heightened Def Con from 3.4e-008 to 3.4e-008
Heightened Def Con from 3.4e-008 to 3.4e-008
Heightened Def Con from 3.4e-008 to 3.4e-008
Heightened Def Con from 3.4e-008 to 3.4e-008
Heightened Def Con from 3.4e-008 ++++++++++++++++++++to 3.4e-008
Heightened Def Con from 3.4e-008 ++++++++++++++++++++to 3.4e-008
Heightened Def Con from 3.4e-008 ++++++++++++++++++++to 3.4e-008
Heightened Def Con from 3.4e-008 ++++++++++++++++++++to 3.4e-008
Heightened Def Con from 3.4e-008 ++++++++++++++++++++to 3.4e-008
Heightened Def Con from 3.4e-008 ++++++++++++++++++++to 3.4e-008
Heightened Def Con from 3.4e-008 ++++++++++++++++++++to 3.4e-008
Heightened Def Con from 3.4e-008 +++++++++++++++++++to 3.40001e-008
Heightened Def Con from 3.40001e-008 ++++++++++++++to 3.40001e-008
Heightened Def Con from 3.40001e-008 +++++++++++++to 3.40001e-008
Heightened Def Con from 3.40001e-008 ++++++++to 3.40002e-008
Heightened Def Con from 3.40002e-008 +++++++to 3.40002e-008
Heightened Def Con from 3.40002e-008 +++++++to 3.40002e-008
Heightened Def Con from 3.40002e-008 ++++++to 3.40002e-008
Heightened Def Con from 3.40004e-008 to 3.40004e-008
Heightened Def Con from 3.40004e-008 +to 3.40004e-008
Heightened Def Con from 3.40004e-008 to 3.40004e-008
Heightened Def Con from 3.40004e-008 to 3.40004e-008
Heightened Def Con from 3.40009e-008 to 3.40009e-008
Heightened Def Con from 3.45e-008 to 3.45e-008
Heightened Def Con from 3.45e-008 to 3.45e-008
Heightened Def Con from 3.45e-008 +++++++++++++++++++++to 3.45e-008
Heightened Def Con from 3.45e-008 +++++++++++++++++++++to 3.45e-008
Heightened Def Con from 3.45e-008 ++++++++++++++++++++to 3.45e-008
Heightened Def Con from 3.45e-008 ++++++++++++++++++to 3.45001e-008
Heightened Def Con from 3.45001e-008 ++++++++++++to 3.45002e-008
Heightened Def Con from 3.5e-008 +++++++to 3.5e-008
Heightened Def Con from 3.5e-008 +to 3.5e-008
Heightened Def Con from 3.5e-008 to 3.5e-008
Heightened Def Con from 3.55e-008 +++++++++++++++++++++to 3.55e-008
Heightened Def Con from 3.55e-008 +++++++++++++++++++++to 3.55e-008
Heightened Def Con from 3.55e-008 ++++++++++++++++++++to 3.55005e-008
Heightened Def Con from 3.55005e-008 +++++++++++++++++++to 3.55006e-008
Heightened Def Con from 3.55006e-008 +++++++++++++++++to 3.55006e-008
Heightened Def Con from 3.55006e-008 +++++++++++++to 3.55007e-008
Heightened Def Con from 3.55007e-008 ++to 3.55007e-008
Heightened Def Con from 3.5501e-008 to 3.5501e-008
Heightened Def Con from 3.5501e-008 +to 3.5501e-008
Heightened Def Con from 3.6e-008 ++++++++++++++++++++to 3.6e-008
Heightened Def Con from 3.6e-008 +++++++++++++++++++to 3.6e-008
Heightened Def Con from 3.6e-008 ++++to 3.6e-008
Heightened Def Con from 3.6e-008 to 3.6e-008
Heightened Def Con from 3.6e-008 ++++++++++++++++++++to 3.6e-008
Heightened Def Con from 3.6e-008 ++++++++++++++++++++to 3.6e-008
Heightened Def Con from 3.6e-008 ++++++++++++++++++++to 3.6e-008
Heightened Def Con from 3.6e-008 ++++++++++++++++++++to 3.6e-008
Heightened Def Con from 3.6e-008 ++++++++++++++++++++to 3.6e-008
Heightened Def Con from 3.6e-008 ++++++++++++++++++++to 3.6e-008
Heightened Def Con from 3.6e-008 +++++++++++++++++++to 3.60001e-008
Heightened Def Con from 3.60001e-008 +++++++++++++++to 3.60001e-008
Heightened Def Con from 3.60001e-008 +++++++++++++to 3.60001e-008
Heightened Def Con from 3.60003e-008 +++++++++++++++++++++to 3.60004e-008
Heightened Def Con from 3.60004e-008 ++++++++++++++++++++to 3.60004e-008
Heightened Def Con from 3.60004e-008 ++++++++++++++++++++to 3.60005e-008
Heightened Def Con from 3.60005e-008 ++++++++++++++++++++to 3.60006e-008
Heightened Def Con from 3.60006e-008 ++++++++++++++++++++to 3.60007e-008
Heightened Def Con from 3.60007e-008 ++++++++++++++++++++to 3.60013e-008
Heightened Def Con from 3.60013e-008 ++++++++++++++++++++to 3.60403e-008
Heightened Def Con from 3.60403e-008 ++++++++++++++++++++to 3.60794e-008
Heightened Def Con from 3.60794e-008 ++++++++++++++++++++to 3.61185e-008
Heightened Def Con from 3.61185e-008 ++++++++++++++++++++to 3.61575e-008
Heightened Def Con from 3.61575e-008 ++++++++++++++++++++to 3.61966e-008
Heightened Def Con from 3.61966e-008 ++++++++++++++++++++to 3.62357e-008
Heightened Def Con from 3.62357e-008 ++++++++++++++++++++to 3.62747e-008
Heightened Def Con from 3.62747e-008 ++++++++++++++++++++to 3.63138e-008
Heightened Def Con from 3.63138e-008 ++++++++++++++++++++to 3.63528e-008
Heightened Def Con from 3.63528e-008 ++++++++++++++++++++to 3.63919e-008
Heightened Def Con from 3.63919e-008 ++++++++++++++++++++to 3.6431e-008
Heightened Def Con from 3.6431e-008 ++++++++++++++++++++to 3.65e-008
Heightened Def Con from 3.65e-008 ++++++++++++++++++++to 3.65e-008
Heightened Def Con from 3.65e-008 ++++++++++++++++++++to 3.65e-008
Heightened Def Con from 3.65e-008 ++++++++++++++++++++to 3.65e-008
Heightened Def Con from 3.65e-008 ++++++++++++++++++++to 3.65e-008
Heightened Def Con from 3.65e-008 ++++++++++++++++++++to 3.65039e-008
Heightened Def Con from 3.65039e-008 ++++++++++++++++++++to 3.6543e-008
Heightened Def Con from 3.6543e-008 ++++++++++++++++++++to 3.6582e-008
Heightened Def Con from 3.6582e-008 ++++++++++++++++++++to 3.66211e-008
Heightened Def Con from 3.66211e-008 ++++++++++++++++++++to 3.66602e-008
Heightened Def Con from 3.66602e-008 ++++++++++++++++++++to 3.66992e-008
Heightened Def Con from 3.66992e-008 ++++++++++++++++++++to 3.67383e-008
Heightened Def Con from 3.67383e-008 ++++++++++++++++++++to 3.67773e-008
Heightened Def Con from 3.67773e-008 ++++++++++++++++++++to 3.68164e-008
Heightened Def Con from 3.68164e-008 ++++++++++++++++++++to 3.68555e-008
Heightened Def Con from 3.68555e-008 ++++++++++++++++++++to 3.68945e-008
Heightened Def Con from 3.68945e-008 ++++++++++++++++++++to 3.69336e-008
Heightened Def Con from 3.69336e-008 ++++++++++++++++++++to 3.7e-008
Heightened Def Con from 3.7e-008 ++++++++++++++++++++to 3.7e-008
Heightened Def Con from 3.7e-008 ++++++++++++++++++++to 3.7e-008
Heightened Def Con from 3.7e-008 ++++++++++++++++++++to 3.7e-008
Heightened Def Con from 3.7e-008 ++++++++++++++++++++to 3.7e-008
Heightened Def Con from 3.7e-008 ++++++++++++++++++++to 3.7e-008
Heightened Def Con from 3.7e-008 ++++++++++++++++++++to 3.70005e-008
Heightened Def Con from 3.70005e-008 ++++++++++++++++++++to 3.70011e-008
Heightened Def Con from 3.70011e-008 ++++++++++++++++++++to 3.70017e-008
Heightened Def Con from 3.70017e-008 ++++++++++++++++++++to 3.70023e-008
Heightened Def Con from 3.70023e-008 ++++++++++++++++++++to 3.70024e-008
Heightened Def Con from 3.70024e-008 ++++++++++++++++++++to 3.70025e-008
Heightened Def Con from 3.70025e-008 ++++++++++++++++++++to 3.70026e-008
Heightened Def Con from 3.70026e-008 ++++++++++++++++++++to 3.70026e-008
Heightened Def Con from 3.70026e-008 ++++++++++++++++++++to 3.70032e-008
Heightened Def Con from 3.70032e-008 +++++++++++++++++++to 3.70033e-008
Heightened Def Con from 3.70033e-008 ++++++++++++++++++to 3.70033e-008
Heightened Def Con from 3.70035e-008 to 3.70035e-008
Heightened Def Con from 3.75e-008 +++++to 3.75e-008
Heightened Def Con from 3.75e-008 to 3.75e-008
Heightened Def Con from 3.75026e-008 to 3.75026e-008
Heightened Def Con from 3.8e-008 ++to 3.8e-008
Heightened Def Con from 3.8e-008 to 3.8e-008
Heightened Def Con from 3.8e-008 +++++++++++++++++++++to 3.8e-008
Heightened Def Con from 3.8e-008 ++++++++++++++++++++to 3.8e-008
Heightened Def Con from 3.8e-008 +++++++++++++++++++to 3.80005e-008
Heightened Def Con from 3.80005e-008 +++++++++++++to 3.80005e-008
Heightened Def Con from 3.80005e-008 ++++++++++++to 3.80005e-008
Heightened Def Con from 3.80005e-008 ++++++++++++to 3.80005e-008
Heightened Def Con from 3.80005e-008 ++++++++++++to 3.80005e-008
Heightened Def Con from 3.80005e-008 ++++++++++++to 3.80005e-008
Heightened Def Con from 3.80005e-008 ++++++++++++to 3.80005e-008
Heightened Def Con from 3.80005e-008 ++++++++++++to 3.80005e-008
Heightened Def Con from 3.80005e-008 ++++++++++++to 3.80005e-008
Heightened Def Con from 3.80005e-008 ++++++++++++to 3.80005e-008
Heightened Def Con from 3.80005e-008 ++++++++++++to 3.80005e-008
Heightened Def Con from 3.80005e-008 ++++++++++++to 3.80005e-008
Heightened Def Con from 3.80005e-008 ++++++++++++to 3.80005e-008
Heightened Def Con from 3.80005e-008 ++++++++++++to 3.80005e-008
Heightened Def Con from 3.80005e-008 ++++++++++++to 3.80005e-008
Heightened Def Con from 3.80005e-008 ++++++++++++to 3.80005e-008
Heightened Def Con from 3.80005e-008 ++++++++++++to 3.80005e-008
Heightened Def Con from 3.80005e-008 ++++++++++++to 3.80005e-008
Heightened Def Con from 3.80005e-008 ++++++++++++to 3.80005e-008
Heightened Def Con from 3.80005e-008 ++++++++++++to 3.80005e-008
Heightened Def Con from 3.80005e-008 ++++++++++++to 3.80005e-008
Heightened Def Con from 3.80005e-008 ++++++++++++to 3.80005e-008
Heightened Def Con from 3.80005e-008 +++++++++++to 3.80005e-008
Heightened Def Con from 3.85e-008 ++to 3.85e-008
Heightened Def Con from 3.85e-008 to 3.85e-008
Heightened Def Con from 3.9e-008 to 3.9e-008
Heightened Def Con from 3.9e-008 to 3.9e-008
Heightened Def Con from 3.9e-008 +++++++++++++++++++++to 3.9e-008
Heightened Def Con from 3.9e-008 ++++++++++++++++++++to 3.9e-008
Heightened Def Con from 3.9e-008 +++++++++++++++++++to 3.9e-008
Heightened Def Con from 3.9e-008 +++++++++++++++++++to 3.9e-008
Heightened Def Con from 3.9e-008 +++++++++++++++++to 3.9e-008
Heightened Def Con from 3.9e-008 ++++++++++to 3.9e-008
Heightened Def Con from 3.9e-008 to 3.9e-008
Heightened Def Con from 3.9e-008 ++++++++++++++++++++to 3.9e-008
Heightened Def Con from 3.9e-008 ++++++++++++++++++++to 3.9e-008
Heightened Def Con from 3.9e-008 ++++++++++++++++++++to 3.9e-008
Heightened Def Con from 3.9e-008 ++++++++++++++++++++to 3.9e-008
Heightened Def Con from 3.9e-008 +++++++++++++++++++to 3.90005e-008
Heightened Def Con from 3.90005e-008 ++++++++++++++to 3.90005e-008
Heightened Def Con from 3.90005e-008 ++++++++++++to 3.90005e-008
Heightened Def Con from 3.9001e-008 to 3.9001e-008
Heightened Def Con from 3.95e-008 +++++++++++++++++++++to 3.95e-008
Heightened Def Con from 3.95e-008 ++++++++++++++++++++to 3.95e-008
Heightened Def Con from 3.95e-008 +++++++++++++++++++to 3.95e-008
Heightened Def Con from 3.95e-008 ++++++++++++++to 3.95e-008

Date: Sun Oct 17 20:34:07 2021
Total elapsed time: 884.169 seconds.

tnom = 27
temp = 27
method = modified trap
totiter = 2068819
traniter = 2068777
tranpoints = 198876
accept = 36812
rejected = 181407
matrix size = 332
fillins = 409
solver = Normal
Thread vector: 356.8/184.1[4] 190.7/99.1[4] 59.1/26.6[4] 4.0/21.4[1]  2592/500
Matrix Compiler1: 56.52 KB object code size  54.7/22.2/[8.6]
Matrix Compiler2: 48.94 KB object code size  18.3/20.3/[5.0]

