Circuit: * C:\Users\Tomm\Documents\LTspiceXVII\VLSI\4bit_parellel_adder.asc

Direct Newton iteration for .op point succeeded.
Heightened Def Con from 2e-009 +++++++++++++++++++++to 2e-009
Heightened Def Con from 2e-009 +++++++++++++++++++++to 2e-009
Heightened Def Con from 2e-009 +++++++++++++++++++++to 2e-009
Heightened Def Con from 2e-009 +++++++++++++++++++++to 2e-009
Heightened Def Con from 2e-009 +++++++++++++++++++++to 2.00166e-009
Heightened Def Con from 2.00166e-009 ++++++++++++++++++++to 2.00169e-009
Heightened Def Con from 2.00169e-009 ++++++++++++++++++++to 2.00195e-009
Heightened Def Con from 2.00195e-009 +++++++++++++++++++to 2.00199e-009
Heightened Def Con from 2.00199e-009 ++++++++++++++++++to 2.00202e-009
Heightened Def Con from 2.00202e-009 +++++++++++++++++to 2.00202e-009
Heightened Def Con from 2.00202e-009 ++++++++++++++++to 2.00203e-009
Heightened Def Con from 2.00203e-009 ++++++++++++++++to 2.00203e-009
Heightened Def Con from 2.00203e-009 ++++++++++++++to 2.00203e-009
Heightened Def Con from 2.00203e-009 ++++to 2.00203e-009
Heightened Def Con from 4e-009 +++++++++++++++++++++to 4e-009
Heightened Def Con from 4e-009 +++++++++++++++++++++to 4e-009
Heightened Def Con from 4e-009 +++++++++++++++++++++to 4e-009
Heightened Def Con from 4e-009 +++++++++++++++++++++to 4e-009
Heightened Def Con from 4e-009 +++++++++++++++++++++to 4.00166e-009
Heightened Def Con from 4.00166e-009 ++++++++++++++++++++to 4.00169e-009
Heightened Def Con from 4.00169e-009 ++++++++++++++++++++to 4.00195e-009
Heightened Def Con from 4.00195e-009 ++++++++++++++++++to 4.00199e-009
Heightened Def Con from 4.00199e-009 ++++++++++++++++to 4.00202e-009
Heightened Def Con from 4.00202e-009 ++++++++++++++++to 4.00202e-009
Heightened Def Con from 4.00202e-009 +++++++++++++++to 4.00202e-009
Heightened Def Con from 4.00202e-009 ++++++to 4.00202e-009
Heightened Def Con from 6e-009 +++++++++++++++++++++to 6e-009
Heightened Def Con from 6e-009 ++++++++++++++++++++to 6e-009
Heightened Def Con from 6e-009 +++++++++++++++++++to 6e-009
Heightened Def Con from 6e-009 ++++++++++++++to 6e-009
Heightened Def Con from 6e-009 ++++to 6e-009
Heightened Def Con from 6e-009 +++to 6e-009
Heightened Def Con from 6e-009 to 6e-009
Heightened Def Con from 6.00035e-009 to 6.00035e-009
Heightened Def Con from 6.00035e-009 to 6.00035e-009
Heightened Def Con from 8e-009 +++++++++++++++++++++to 8e-009
Heightened Def Con from 8e-009 ++++++++++++++++++++to 8e-009
Heightened Def Con from 8e-009 +++++++++++++++++++to 8e-009
Heightened Def Con from 8e-009 ++++++++++++++to 8e-009
Heightened Def Con from 8e-009 ++++to 8e-009
Heightened Def Con from 8e-009 +++to 8e-009
Heightened Def Con from 8e-009 to 8e-009
Heightened Def Con from 8e-009 +++++++++++++++++++++to 8e-009
Heightened Def Con from 8e-009 ++++++++++++++++++++to 8e-009
Heightened Def Con from 8e-009 ++++++++++++++++++++to 8e-009
Heightened Def Con from 8e-009 +++++++++++++++++++to 8.00021e-009
Heightened Def Con from 8.00021e-009 ++++++++++++++++++to 8.00024e-009
Heightened Def Con from 8.00024e-009 +++++++++++to 8.00027e-009
Heightened Def Con from 1e-008 +++++++++++++++++++++to 1e-008
Heightened Def Con from 1e-008 +++++++++++++++++++++to 1e-008
Heightened Def Con from 1e-008 +++++++++++++++++++++to 1e-008
Heightened Def Con from 1e-008 +++++++++++++++++++++to 1e-008
Heightened Def Con from 1e-008 +++++++++++++++++++++to 1.00017e-008
Heightened Def Con from 1.00017e-008 ++++++++++++++++++++to 1.00017e-008
Heightened Def Con from 1.00017e-008 ++++++++++++++++++++to 1.0002e-008
Heightened Def Con from 1.0002e-008 +++++++++++++++++++to 1.0002e-008
Heightened Def Con from 1.0002e-008 ++++++++++++++++++to 1.0002e-008
Heightened Def Con from 1.0002e-008 ++++++++++++++++++to 1.0002e-008
Heightened Def Con from 1.0002e-008 +++++++++++++++++to 1.0002e-008
Heightened Def Con from 1.0002e-008 +++++++++++++++to 1.0002e-008
Heightened Def Con from 1.0002e-008 ++++++to 1.0002e-008
Heightened Def Con from 1.2e-008 +++++++++++++++++++++to 1.2e-008
Heightened Def Con from 1.2e-008 ++++++++++++++++++++to 1.2e-008
Heightened Def Con from 1.2e-008 +++++++++++++++++++to 1.2e-008
Heightened Def Con from 1.2e-008 ++++++++++++++to 1.2e-008
Heightened Def Con from 1.2e-008 ++++to 1.2e-008
Heightened Def Con from 1.2e-008 +++to 1.2e-008
Heightened Def Con from 1.2e-008 to 1.2e-008
Heightened Def Con from 1.2e-008 +++++++++++++++++++++to 1.2e-008
Heightened Def Con from 1.2e-008 ++++++++++++++++++++to 1.2e-008
Heightened Def Con from 1.2e-008 ++++++++++++++++++++to 1.2e-008
Heightened Def Con from 1.2e-008 +++++++++++++++++++to 1.20002e-008
Heightened Def Con from 1.20002e-008 ++++++++++++++++++to 1.20002e-008
Heightened Def Con from 1.20002e-008 ++++++++++++to 1.20003e-008
Heightened Def Con from 1.20003e-008 +++++++++++to 1.20003e-008
Heightened Def Con from 1.4e-008 +++++++++++++++++++++to 1.4e-008
Heightened Def Con from 1.4e-008 ++++++++++++++++++++to 1.4e-008
Heightened Def Con from 1.4e-008 +++++++++++++++++++to 1.4e-008
Heightened Def Con from 1.4e-008 ++++++++++++++to 1.4e-008
Heightened Def Con from 1.4e-008 ++++to 1.4e-008
Heightened Def Con from 1.4e-008 +++to 1.4e-008
Heightened Def Con from 1.4e-008 to 1.4e-008
Heightened Def Con from 1.40003e-008 to 1.40003e-008
Heightened Def Con from 1.40003e-008 to 1.40003e-008

Date: Sun Oct 31 20:16:08 2021
Total elapsed time: 17.482 seconds.

tnom = 27
temp = 27
method = modified trap
totiter = 147004
traniter = 146974
tranpoints = 15941
accept = 5309
rejected = 11973
matrix size = 152
fillins = 114
solver = Normal
Thread vector: 202.7/91.5[4] 228.3/56.8[4] 88.5/35.3[4] 2.2/17.3[1]  2592/500
Matrix Compiler1: 22.00 KB object code size  21.0/9.0/[6.0]
Matrix Compiler2: 20.74 KB object code size  9.3/10.7/[2.5]

