Circuit: * C:\Users\Tomm\Documents\LTspiceXVII\VLSI\AND_TEST .asc

Limiting rise time of source v2 to 5e-010
Limiting fall time of source v2 to 5e-010
Limiting rise time of source v1 to 5e-010
Limiting fall time of source v1 to 5e-010
Direct Newton iteration for .op point succeeded.

Date: Thu Sep 09 15:51:58 2021
Total elapsed time: 0.131 seconds.

tnom = 27
temp = 27
method = modified trap
totiter = 3062
traniter = 3049
tranpoints = 1148
accept = 1125
rejected = 23
matrix size = 9
fillins = 0
solver = Normal
Matrix Compiler1:      21 opcodes  0.2/[0.1]/0.1
Matrix Compiler2: 749 bytes object code size  0.1/0.1/[0.1]

