Circuit: * C:\Users\Tomm\Documents\LTspiceXVII\VLSI\Buffer_Sym.asc

Limiting rise time of source v1 to 5e-010
Limiting fall time of source v1 to 5e-010
Direct Newton iteration for .op point succeeded.

Date: Mon Sep 06 09:14:23 2021
Total elapsed time: 0.172 seconds.

tnom = 27
temp = 27
method = modified trap
totiter = 2451
traniter = 2422
tranpoints = 1101
accept = 1084
rejected = 17
matrix size = 8
fillins = 0
solver = Normal
Matrix Compiler1:      14 opcodes  0.1/[0.1]/0.1
Matrix Compiler2: off  [0.1]/0.1/0.2

