Circuit: * C:\Users\Tomm\Documents\LTspiceXVII\VLSI\Buffer.asc

Limiting rise time of source v1 to 5e-010
Limiting fall time of source v1 to 5e-010

Date: Mon Sep 06 11:59:14 2021
Total elapsed time: 0.156 seconds.

tnom = 27
temp = 27
method = trap
totiter = 2047
traniter = 0
tranpoints = 0
accept = 0
rejected = 0
matrix size = 8
fillins = 0
solver = Normal
Matrix Compiler1: 228 bytes object code size  0.1/0.1/[0.1]
Matrix Compiler2: 580 bytes object code size  0.1/0.1/[0.1]

