Circuit: * C:\Users\Tomm\Documents\LTspiceXVII\VLSI\Cmos_nand.asc

Limiting rise time of source v§b to 5e-010
Limiting fall time of source v§b to 5e-010
Limiting rise time of source v§a to 5e-010
Limiting fall time of source v§a to 5e-010
Direct Newton iteration for .op point succeeded.

Date: Fri Sep 03 10:14:07 2021
Total elapsed time: 0.097 seconds.

tnom = 27
temp = 27
method = modified trap
totiter = 2770
traniter = 2758
tranpoints = 1230
accept = 1182
rejected = 48
matrix size = 8
fillins = 0
solver = Normal
Matrix Compiler1: 282 bytes object code size  0.1/0.1/[0.1]
Matrix Compiler2: off  [0.1]/0.2/0.1

