Circuit: * C:\Users\Tomm\Documents\LTspiceXVII\VLSI\CMOS_Inverter.asc

Instance "m1": Length shorter than recommended for a level 1 MOSFET.
Instance "m1": Width narrower than recommended for a level 1 MOSFET.
Instance "m2": Length shorter than recommended for a level 1 MOSFET.
Instance "m2": Width narrower than recommended for a level 1 MOSFET.

Date: Mon Aug 23 17:20:54 2021
Total elapsed time: 0.088 seconds.

tnom = 27
temp = 27
method = trap
totiter = 91
traniter = 0
tranpoints = 0
accept = 0
rejected = 0
matrix size = 5
fillins = 0
solver = Normal
Matrix Compiler1: 204 bytes object code size
Matrix Compiler2: 311 bytes object code size
